--------------------------------------------------------------------------------
 Model Input Parameters:  ROMS/TOMS version 4.2  
                          Wednesday - December 27, 2023 - 10:49:34 PM
--------------------------------------------------------------------------------

 Wind-Driven Upwelling/Downwelling over a Periodic Channel

 Operating system  : Linux
 CPU/hardware      : x86_64
 Compiler system   : gfortran
 Compiler command  : /usr/bin/gfortran
 Compiler flags    : -frepack-arrays -fallow-argument-mismatch        -g -O0 -fbounds-check -fbacktrace -fcheck=all -finit-real=nan -ffpe-trap=invalid,zero,overflow -
 GIT Root URL      : https://github.com/myroms/roms.git
 GIT Revision      : 5ca8b9d0559233eaa40e7fc1d04607b5aa8d579e
 SVN Root URL      : https://www.myroms.org/svn/src/trunk
 SVN Revision      : 1209

 Local Root        : /home/james/repos/roms
 Header Dir        : /home/james/projects/roms_proj/upwelling
 Header file       : upwelling.h
 Analytical Dir    : /home/james/projects/roms_proj/upwelling

 Resolution, Grid 01: 41x80x16,  Parallel Threads: 1,  Tiling: 1x1


 Physical Parameters, Grid: 01
 =============================

       1440  ntimes            Number of timesteps for 3-D equations.
    300.000  dt                Timestep size (s) for 3-D equations.
         30  ndtfast           Number of timesteps for 2-D equations between
                                 each 3D timestep.
          1  ERstr             Starting ensemble/perturbation run number.
          1  ERend             Ending ensemble/perturbation run number.
          0  nrrec             Number of restart records to read from disk.
          T  LcycleRST         Switch to recycle time-records in restart file.
        288  nRST              Number of timesteps between the writing of data
                                 into restart fields.
          1  ninfo             Number of timesteps between print of information
                                 to standard output.
          T  ldefout           Switch to create a new output NetCDF file(s).
         72  nHIS              Number of timesteps between the writing fields
                                 into history file.
          0  nQCK              Number of timesteps between the writing fields
                                 into quicksave file.
          1  ntsAVG            Starting timestep for the accumulation of output
                                 time-averaged data.
         72  nAVG              Number of timesteps between the writing of
                                 time-averaged data into averages file.
          1  ntsDIA            Starting timestep for the accumulation of output
                                 time-averaged diagnostics data.
         72  nDIA              Number of timesteps between the writing of
                                 time-averaged data into diagnostics file.
 0.0000E+00  nl_tnu2(01)       NLM Horizontal, harmonic mixing coefficient
                                 (m2/s) for tracer 01: temp
 0.0000E+00  nl_tnu2(02)       NLM Horizontal, harmonic mixing coefficient
                                 (m2/s) for tracer 02: salt
 5.0000E+00  nl_visc2          NLM Horizontal, harmonic mixing coefficient
                                 (m2/s) for momentum.
          F  LuvSponge         Turning OFF sponge on horizontal momentum.
          F  LtracerSponge(01) Turning OFF sponge on tracer 01: temp
          F  LtracerSponge(02) Turning OFF sponge on tracer 02: salt
 1.0000E-06  Akt_bak(01)       Background vertical mixing coefficient (m2/s)
                                 for tracer 01: temp
 1.0000E-06  Akt_bak(02)       Background vertical mixing coefficient (m2/s)
                                 for tracer 02: salt
 1.0000E-05  Akv_bak           Background vertical mixing coefficient (m2/s)
                                 for momentum.
 3.0000E-04  rdrg              Linear bottom drag coefficient (m/s).
 3.0000E-03  rdrg2             Quadratic bottom drag coefficient.
 2.0000E-02  Zob               Bottom roughness (m).
          2  Vtransform        S-coordinate transformation equation.
          4  Vstretching       S-coordinate stretching function.
 3.0000E+00  theta_s           S-coordinate surface control parameter.
 0.0000E+00  theta_b           S-coordinate bottom  control parameter.
     25.000  Tcline            S-coordinate surface/bottom layer width (m) used
                                 in vertical coordinate stretching.
   1025.000  rho0              Mean density (kg/m3) for Boussinesq approximation.
      0.000  dstart            Time-stamp assigned to model initialization (days).
       0.00  time_ref          Reference time for units attribute (yyyymmdd.dd)
 0.0000E+00  Tnudg(01)         Nudging/relaxation time scale (days)
                                 for tracer 01: temp
 0.0000E+00  Tnudg(02)         Nudging/relaxation time scale (days)
                                 for tracer 02: salt
 0.0000E+00  Znudg             Nudging/relaxation time scale (days)
                                 for free-surface.
 0.0000E+00  M2nudg            Nudging/relaxation time scale (days)
                                 for 2D momentum.
 0.0000E+00  M3nudg            Nudging/relaxation time scale (days)
                                 for 3D momentum.
 0.0000E+00  obcfac            Factor between passive and active
                                 open boundary conditions.
          F  VolCons(1)        NLM western  edge boundary volume conservation.
          F  VolCons(2)        NLM southern edge boundary volume conservation.
          F  VolCons(3)        NLM eastern  edge boundary volume conservation.
          F  VolCons(4)        NLM northern edge boundary volume conservation.
     14.000  T0                Background potential temperature (C) constant.
     35.000  S0                Background salinity (PSU) constant.
   1027.000  R0                Background density (kg/m3) used in linear Equation
                                 of State.
 1.7000E-04  Tcoef             Thermal expansion coefficient (1/Celsius).
 0.0000E+00  Scoef             Saline contraction coefficient (1/PSU).
      1.000  gamma2            Slipperiness variable: free-slip (1.0) or 
                                                      no-slip (-1.0).
          F  LuvSrc            Turning OFF momentum point Sources/Sinks.
          F  LwSrc             Turning OFF volume influx point Sources/Sinks.
          F  LtracerSrc(01)    Turning OFF point Sources/Sinks on tracer 01: temp
          F  LtracerSrc(02)    Turning OFF point Sources/Sinks on tracer 02: salt
          F  LsshCLM           Turning OFF processing of SSH climatology.
          F  Lm2CLM            Turning OFF processing of 2D momentum climatology.
          F  Lm3CLM            Turning OFF processing of 3D momentum climatology.
          F  LtracerCLM(01)    Turning OFF processing of climatology tracer 01: temp
          F  LtracerCLM(02)    Turning OFF processing of climatology tracer 02: salt
          F  LnudgeM2CLM       Turning OFF nudging of 2D momentum climatology.
          F  LnudgeM3CLM       Turning OFF nudging of 3D momentum climatology.
          F  LnudgeTCLM(01)    Turning OFF nudging of climatology tracer 01: temp
          F  LnudgeTCLM(02)    Turning OFF nudging of climatology tracer 02: salt

          T  Hout(idFsur)      Write out free-surface.
          T  Hout(idUbar)      Write out 2D U-momentum component.
          T  Hout(idVbar)      Write out 2D V-momentum component.
          T  Hout(idUvel)      Write out 3D U-momentum component.
          T  Hout(idVvel)      Write out 3D V-momentum component.
          T  Hout(idWvel)      Write out W-momentum component.
          T  Hout(idOvel)      Write out omega vertical velocity.
          T  Hout(idTvar)      Write out tracer 01: temp
          T  Hout(idTvar)      Write out tracer 02: salt
          T  Hout(idDano)      Write out density anomaly.

          T  Aout(idFsur)      Write out averaged free-surface.
          T  Aout(idUbar)      Write out averaged 2D U-momentum component.
          T  Aout(idVbar)      Write out averaged 2D V-momentum component.
          T  Aout(idUvel)      Write out averaged 3D U-momentum component.
          T  Aout(idVvel)      Write out averaged 3D V-momentum component.
          T  Aout(idWvel)      Write out averaged W-momentum component.
          T  Aout(idOvel)      Write out averaged omega vertical velocity.
          T  Aout(idTvar)      Write out averaged tracer 01: temp
          T  Aout(idTvar)      Write out averaged tracer 02: salt
          T  Aout(idDano)      Write out averaged density anomaly.
          T  Aout(idZZav)      Write out averaged quadratic <zeta*zeta> term.
          T  Aout(idU2av)      Write out averaged quadratic <ubar*ubar> term.
          T  Aout(idV2av)      Write out averaged quadratic <vbar*vbar> term.
          T  Aout(idHUav)      Write out averaged u-volume flux, Huon.
          T  Aout(idHVav)      Write out averaged v-volume flux, Hvom.
          T  Aout(idUUav)      Write out averaged quadratic <u*u> term.
          T  Aout(idUVav)      Write out averaged quadratic <u*v> term.
          T  Aout(idVVav)      Write out averaged quadratic <v*v> term.
          T  Aout(idTTav)      Write out averaged <t*t> for tracer 01: temp
          T  Aout(idTTav)      Write out averaged <t*t> for tracer 02: salt
          T  Aout(idUTav)      Write out averaged <u*t> for tracer 01: temp
          T  Aout(idUTav)      Write out averaged <u*t> for tracer 02: salt
          T  Aout(idVTav)      Write out averaged <v*t> for tracer 01: temp
          T  Aout(idVTav)      Write out averaged <v*t> for tracer 02: salt
          T  Aout(iHUTav)      Write out averaged <Huon*t> for tracer 01: temp
          T  Aout(iHUTav)      Write out averaged <Huon*t> for tracer 02: salt
          T  Aout(iHVTav)      Write out averaged <Hvom*t> for tracer 01: temp
          T  Aout(iHVTav)      Write out averaged <Hvom*t> for tracer 02: salt

          T  Dout(M2rate)      Write out 2D momentum acceleration.
          T  Dout(M2pgrd)      Write out 2D momentum pressure gradient.
          T  Dout(M2fcor)      Write out 2D momentum Coriolis force.
          T  Dout(M2hadv)      Write out 2D momentum horizontal advection.
          T  Dout(M2xadv)      Write out 2D momentum horizontal X-advection.
          T  Dout(M2yadv)      Write out 2D momentum horizontal Y-advection.
          T  Dout(M2hvis)      Write out 2D momentum horizontal viscosity.
          T  Dout(M2xvis)      Write out 2D momentum horizontal X-viscosity.
          T  Dout(M2yvis)      Write out 2D momentum horizontal Y-viscosity.
          T  Dout(M2sstr)      Write out 2D momentum surface stress.
          T  Dout(M2bstr)      Write out 2D momentum bottom stress.

          T  Dout(M3rate)      Write out 3D momentum acceleration.
          T  Dout(M3pgrd)      Write out 3D momentum pressure gradient.
          T  Dout(M3fcor)      Write out 3D momentum Coriolis force.
          T  Dout(M3hadv)      Write out 3D momentum horizontal advection.
          T  Dout(M3xadv)      Write out 3D momentum horizontal X-advection.
          T  Dout(M3yadv)      Write out 3D momentum horizontal Y-advection.
          T  Dout(M3vadv)      Write out 3D momentum vertical advection.
          T  Dout(M3hvis)      Write out 3D momentum horizontal viscosity.
          T  Dout(M3xvis)      Write out 3D momentum horizontal X-viscosity.
          T  Dout(M3yvis)      Write out 3D momentum horizontal Y-viscosity.
          T  Dout(M3vvis)      Write out 3D momentum vertical viscosity.

          T  Dout(iTrate)      Write out rate of change of tracer 01: temp
          T  Dout(iTrate)      Write out rate of change of tracer 02: salt
          T  Dout(iThadv)      Write out horizontal advection, tracer 01: temp
          T  Dout(iThadv)      Write out horizontal advection, tracer 02: salt
          T  Dout(iTxadv)      Write out horizontal X-advection, tracer 01: temp
          T  Dout(iTxadv)      Write out horizontal X-advection, tracer 02: salt
          T  Dout(iTyadv)      Write out horizontal Y-advection, tracer 01: temp
          T  Dout(iTyadv)      Write out horizontal Y-advection, tracer 02: salt
          T  Dout(iTvadv)      Write out vertical advection, tracer 01: temp
          T  Dout(iTvadv)      Write out vertical advection, tracer 02: salt
          T  Dout(iThdif)      Write out horizontal diffusion, tracer 01: temp
          T  Dout(iThdif)      Write out horizontal diffusion, tracer 02: salt
          T  Dout(iTxdif)      Write out horizontal X-diffusion, tracer 01: temp
          T  Dout(iTxdif)      Write out horizontal X-diffusion, tracer 02: salt
          T  Dout(iTydif)      Write out horizontal Y-diffusion , tracer 01: temp
          T  Dout(iTydif)      Write out horizontal Y-diffusion , tracer 02: salt
          T  Dout(iTvdif)      Write out vertical diffusion, tracer 01: temp
          T  Dout(iTvdif)      Write out vertical diffusion, tracer 02: salt

          1  inp_lib           Using standard NetCDF library for input files.
          1  out_lib           Using standard NetCDF library for output files.

 Output/Input Files:

               Output Restart File:  roms_rst.nc
               Output History File:  roms_his.nc
              Output Averages File:  roms_avg.nc
           Output Diagnostics File:  roms_dia.nc
  ROMS I/O variables Metadata File:  varinfo.yaml

 Tile partition information for Grid 01:  41x80x16  tiling: 1x1

     tile     Istr     Iend     Jstr     Jend     Npts

        0        1       41        1       80    52480

 Tile minimum and maximum fractional coordinates for Grid 01:
   (interior points only)

     tile     Xmin     Xmax     Ymin     Ymax     grid

        0    -2.50    43.50     0.50    81.50  RHO-points

        0    -3.00    43.00     0.50    81.50    U-points

        0    -2.50    43.50     0.00    81.00    V-points

 Tracer Advection Scheme: NLM
 ========================

 Variable               Grid  Horizontal         Vertical
 ---------              ----  ------------       ------------

 temp                     1   Upstream3          Centered4

 salt                     1   HSIMT              HSIMT

 Akima4     Fourth-order Akima advection
 Centered2  Second-order centered differences advection
 Centered4  Fourth-order centered differences advection
 HSIMT      Third High-order Spatial Inteporlation at Middle Time Advection with TVD limiter
 MPDATA     Multidimensional Positive Definite Advection Algorithm, recursive method
 Splines    Conservative Parabolic Splines Reconstruction Advection (only vertical; not recommended)
 Split_U3   Split third-order Upstream Advection
 Upstream3  Third-order Upstream-biased Advection (only horizontal)


 Lateral Boundary Conditions: NLM
 ============================

 Variable               Grid  West Edge    South Edge   East Edge    North Edge
 ---------              ----  ----------   ----------   ----------   ----------

 zeta                     1   Periodic     Closed       Periodic     Closed

 ubar                     1   Periodic     Closed       Periodic     Closed

 vbar                     1   Periodic     Closed       Periodic     Closed

 u                        1   Periodic     Closed       Periodic     Closed

 v                        1   Periodic     Closed       Periodic     Closed

 temp                     1   Periodic     Closed       Periodic     Closed

 salt                     1   Periodic     Closed       Periodic     Closed

 Activated C-preprocessing Options:

 UPWELLING                Wind-Driven Upwelling/Downwelling over a Periodic Channel
 ANA_BSFLUX               Analytical kinematic bottom salinity flux
 ANA_BTFLUX               Analytical kinematic bottom temperature flux
 ANA_GRID                 Analytical grid set-up
 ANA_INITIAL              Analytical initial conditions
 ANA_SMFLUX               Analytical kinematic surface momentum flux
 ANA_SSFLUX               Analytical kinematic surface salinity flux
 ANA_STFLUX               Analytical kinematic surface temperature flux
 ANA_VMIX                 Analytical vertical mixing coefficients
 ASSUMED_SHAPE            Using assumed-shape arrays
 AVERAGES                 Writing out time-averaged nonlinear model fields
 DIAGNOSTICS_TS           Computing and writing tracer diagnostic terms
 DIAGNOSTICS_UV           Computing and writing momentum diagnostic terms
 DJ_GRADPS                Parabolic Splines density Jacobian (Shchepetkin, 2002)
 DOUBLE_PRECISION         Double precision arithmetic numerical kernel.
 MIX_S_TS                 Mixing of tracers along constant S-surfaces
 MIX_S_UV                 Mixing of momentum along constant S-surfaces
 NONLINEAR                Nonlinear Model
 !NONLIN_EOS              Linear Equation of State for seawater
 POWER_LAW                Power-law shape time-averaging barotropic filter
 PROFILE                  Time profiling activated
 !RST_SINGLE              Double precision fields in restart NetCDF file
 SALINITY                 Using salinity
 STEP2D_LF_AM3            Predictor/Corrector LF-AM3 stepping scheme
 SOLVE3D                  Solving 3D Primitive Equations
 SPLINES_VDIFF            Parabolic Spline Reconstruction for Vertical Diffusion
 SPLINES_VVISC            Parabolic Spline Reconstruction for Vertical Viscosity
 TS_DIF2                  Harmonic mixing of tracers
 UV_ADV                   Advection of momentum
 UV_COR                   Coriolis term
 UV_U3HADVECTION          Third-order upstream horizontal advection of 3D momentum
 UV_C4VADVECTION          Fourth-order centered vertical advection of momentum
 UV_LDRAG                 Linear bottom stress
 UV_VIS2                  Harmonic mixing of momentum
 VAR_RHO_2D               Variable density barotropic mode

 Process Information:

 Thread #    0 (pid=   91288) is active.

 INITIAL: Configuring and initializing forward nonlinear model ...
 *******

    ANA_GRID    - x-location of PSI-points: x_psi
                   (Grid = 01, Min =  0.00000000E+00 Max =  4.00000000E+04)
    ANA_GRID    - y-location of PSI-points: y_psi
                   (Grid = 01, Min =  0.00000000E+00 Max =  8.00000000E+04)
    ANA_GRID    - x-location of RHO-points: x_rho
                   (Grid = 01, Min =  5.00000000E+02 Max =  4.05000000E+04)
    ANA_GRID    - y-location of RHO-points: y_rho
                   (Grid = 01, Min = -5.00000000E+02 Max =  8.05000000E+04)
    ANA_GRID    - x-location of U-points: x_u
                   (Grid = 01, Min =  0.00000000E+00 Max =  4.00000000E+04)
    ANA_GRID    - y-location of U-points: y_u
                   (Grid = 01, Min = -5.00000000E+02 Max =  8.05000000E+04)
    ANA_GRID    - x-location of V-points: x_v
                   (Grid = 01, Min =  5.00000000E+02 Max =  4.05000000E+04)
    ANA_GRID    - y-location of V-points: y_v
                   (Grid = 01, Min =  0.00000000E+00 Max =  8.00000000E+04)
    ANA_GRID    - reciprocal XI-grid spacing: pm
                   (Grid = 01, Min =  1.00000000E-03 Max =  1.00000000E-03)
    ANA_GRID    - reciprocal ETA-grid spacing: pn
                   (Grid = 01, Min =  1.00000000E-03 Max =  1.00000000E-03)
    ANA_GRID    - angle between XI-axis and EAST: angler
                   (Grid = 01, Min =  0.00000000E+00 Max =  0.00000000E+00)
    ANA_GRID    - Coriolis parameter at RHO-points: f
                   (Grid = 01, Min = -8.26000000E-05 Max = -8.26000000E-05)
    ANA_GRID    - bathymetry at RHO-points: h
                   (Grid = 01, Min =  2.52004887E+01 Max =  1.50000000E+02)

 Vertical S-coordinate System, Grid 01:

 level   S-coord     Cs-curve   Z   at hmin       at hc    half way     at hmax

    16   0.0000000   0.0000000        0.000       0.000       0.000       0.000
    15  -0.0625000  -0.0019442       -0.809      -0.806      -1.348      -1.589
    14  -0.1250000  -0.0078455       -1.668      -1.661      -2.966      -3.687
    13  -0.1875000  -0.0179119       -2.580      -2.568      -4.867      -6.321
    12  -0.2500000  -0.0324983       -3.549      -3.531      -7.077      -9.535
    11  -0.3125000  -0.0521190       -4.581      -4.558      -9.630     -13.397
    10  -0.3750000  -0.0774659       -5.686      -5.656     -12.573     -17.996
     9  -0.4375000  -0.1094327       -6.875      -6.837     -15.967     -23.445
     8  -0.5000000  -0.1491465       -8.162      -8.114     -19.889     -29.890
     7  -0.5625000  -0.1980075       -9.564      -9.506     -24.435     -37.512
     6  -0.6250000  -0.2577387      -11.104     -11.034     -29.721     -46.531
     5  -0.6875000  -0.3304460      -12.808     -12.724     -35.892     -57.218
     4  -0.7500000  -0.4186931      -14.709     -14.609     -43.121     -69.903
     3  -0.8125000  -0.5255915      -16.846     -16.726     -51.622     -84.987
     2  -0.8750000  -0.6549105      -19.266     -19.124     -61.651    -102.953
     1  -0.9375000  -0.8112096      -22.028     -21.859     -73.518    -124.388
     0  -1.0000000  -1.0000000      -25.200     -25.000     -87.600    -150.000

 Time Splitting Weights for Grid 01:    ndtfast =  30    nfast =  42
 ==================================

    Primary            Secondary            Accumulated to Current Step

  1-0.0008094437383769 0.0333333333333333-0.0008094437383769 0.0333333333333333
  2-0.0014053566728197 0.0333603147912792-0.0022148004111966 0.0666936481246126
  3-0.0017877524645903 0.0334071600137066-0.0040025528757869 0.1001008081383191
  4-0.0019566842408176 0.0334667517625262-0.0059592371166046 0.1335675599008453
  5-0.0019122901320372 0.0335319745705535-0.0078715272486418 0.1670995344713988
  6-0.0016548570247459 0.0335957175749547-0.0095263842733877 0.2006952520463536
  7-0.0011849025289723 0.0336508794757796-0.0107112868023600 0.2343461315221331
  8-0.0005032751608631 0.0336903762267453-0.0112145619632232 0.2680365077488784
  9 0.0003887272597151 0.0337071520654408-0.0108258347035081 0.3017436598143192
 10 0.0014892209965583 0.0336941944901169-0.0093366137069498 0.3354378543044362
 11 0.0027955815694920 0.0336445537902317-0.0065410321374578 0.3690824080946679
 12 0.0043042707117221 0.0335513677379153-0.0022367614257356 0.4026337758325831
 13 0.0060106451121704 0.0334078920475245 0.0037738836864348 0.4360416678801076
 14 0.0079087469427945 0.0332075372104522 0.0116826306292293 0.4692492050905598
 15 0.0099910761708920 0.0329439123123590 0.0216737068001213 0.5021931174029188
 16 0.0122483446563884 0.0326108764399960 0.0339220514565097 0.5348039938429148
 17 0.0146692120341107 0.0322025982847830 0.0485912634906204 0.5670065921276978
 18 0.0172400033810439 0.0317136245503127 0.0658312668716643 0.5987202166780105
 19 0.0199444086685725 0.0311389577709445 0.0857756755402368 0.6298591744489550
 20 0.0227631639997064 0.0304741441486588 0.1085388395399432 0.6603333185976138
 21 0.0256737146312911 0.0297153720153352 0.1342125541712342 0.6900486906129490
 22 0.0286498597812016 0.0288595815276255 0.1628624139524359 0.7189082721405746
 23 0.0316613792205220 0.0279045862015855 0.1945237931729578 0.7468128583421600
 24 0.0346736416507075 0.0268492068942347 0.2291974348236653 0.7736620652363948
 25 0.0376471948657328 0.0256934188392112 0.2668446296893981 0.7993554840756060
 26 0.0405373376992232 0.0244385123436867 0.3073819673886213 0.8237939964192927
 27 0.0432936737565710 0.0230872677537126 0.3506756411451924 0.8468812641730054
 28 0.0458596469320356 0.0216441452951603 0.3965352880772280 0.8685254094681656
 29 0.0481720587108284 0.0201154903974257 0.4447073467880565 0.8886408998655914
 30 0.0501605672561820 0.0185097551070648 0.4948679140442384 0.9071506549726561
 31 0.0517471682814030 0.0168377361985254 0.5466150823256415 0.9239883911711815
 32 0.0528456577069106 0.0151128305891453 0.5994607400325521 0.9391012217603267
 33 0.0533610761022577 0.0133513086655816 0.6528218161348098 0.9524525304259084
 34 0.0531891349131379 0.0115726061288397 0.7060109510479478 0.9640251365547481
 35 0.0522156244733761 0.0097996349650684 0.7582265755213239 0.9738247715198165
 36 0.0503158038019030 0.0080591141492892 0.8085423793232269 0.9818838856691057
 37 0.0473537721847153 0.0063819206892258 0.8558961515079423 0.9882658063583315
 38 0.0431818225418188 0.0048034616164019 0.8990779740497611 0.9930692679747334
 39 0.0376397765791564 0.0033640675316746 0.9367177506289175 0.9964333355064080
 40 0.0305543017255206 0.0021094083123694 0.9672720523544381 0.9985427438187774
 41 0.0217382098544504 0.0010909315881854 0.9890102622088885 0.9996336754069628
 42 0.0109897377911118 0.0003663245930371 1.0000000000000004 0.9999999999999999

 ndtfast, nfast =   30  42   nfast/ndtfast =  1.40000

 Centers of gravity and integrals (values must be 1, 1, approx 1/2, 1, 1):

    1.000000000000 1.047601458608 0.523800729304 1.000000000000 1.000000000000

 Power filter parameters, Fgamma, gamma =  0.28400   0.18933

 Metrics information for Grid 01:
 ===============================

 Minimum X-grid spacing, DXmin =  1.00000000E+00 km
 Maximum X-grid spacing, DXmax =  1.00000000E+00 km
 Minimum Y-grid spacing, DYmin =  1.00000000E+00 km
 Maximum Y-grid spacing, DYmax =  1.00000000E+00 km
 Minimum Z-grid spacing, DZmin =  8.08965824E-01 m
 Maximum Z-grid spacing, DZmax =  2.56123321E+01 m

 Minimum barotropic Courant Number =  2.22358627E-01
 Maximum barotropic Courant Number =  5.42494240E-01
 Maximum Coriolis   Courant Number =  2.47800000E-02

    ANA_INITIAL - vertically integrated u-momentum component: ubar
                   (Grid = 01, Min =  0.00000000E+00 Max =  0.00000000E+00)
    ANA_INITIAL - vertically integrated v-momentum component: vbar
                   (Grid = 01, Min =  0.00000000E+00 Max =  0.00000000E+00)
    ANA_INITIAL - free-surface: zeta
                   (Grid = 01, Min =  0.00000000E+00 Max =  0.00000000E+00)
    ANA_INITIAL - u-momentum component: u
                   (Grid = 01, Min =  0.00000000E+00 Max =  0.00000000E+00)
    ANA_INITIAL - v-momentum component: v
                   (Grid = 01, Min =  0.00000000E+00 Max =  0.00000000E+00)
    ANA_INITIAL - potential temperature: temp
                   (Grid = 01, Min =  1.45204834E+01 Max =  2.19365219E+01)
    ANA_INITIAL - salinity: salt
                   (Grid = 01, Min =  3.50000000E+01 Max =  3.50000000E+01)

 Basin information for Grid 01:

 Maximum grid stiffness ratios:  rx0 =   6.931666E-02 (Beckmann and Haidvogel)
                                 rx1 =   8.661243E-01 (Haney)

 Initial domain volumes:  TotVolume =  3.8843755884E+11 m3
                         MinCellVol =  8.4521383562E+05 m3
                         MaxCellVol =  2.5612332106E+07 m3
                            Max/Min =  3.0302783777E+01


 NL ROMS/TOMS: started time-stepping: (Grid: 01 TimeSteps: 000000000001 - 000000001440)


 TIME-STEP YYYY-MM-DD hh:mm:ss.ss  KINETIC_ENRG   POTEN_ENRG    TOTAL_ENRG    NET_VOLUME
                     C => (i,j,k)       Cu            Cv            Cw         Max Speed

         0 0001-01-01 00:00:00.00  0.000000E+00  6.585677E+02  6.585677E+02  3.884376E+11
                       (00,00,00)  0.000000E+00  0.000000E+00  0.000000E+00  0.000000E+00
  DEF_HIS_NF90     - creating history file,            Grid 01: roms_his.nc
  WRT_HIS_NF90     - writing history     fields (Index=1,1) in record = 1
  DEF_AVG_NF90     - creating average file,            Grid 01: roms_avg.nc
  DEF_DIAGS_NF90   - creating diagnostics file,        Grid 01: roms_dia.nc
  DEF_RST_NF90     - creating restart file,            Grid 01: roms_rst.nc
         1 0001-01-01 00:05:00.00  6.479408E-13  6.585677E+02  6.585677E+02  3.884376E+11
                       (01,01,01)  1.069435E-09  1.950204E-06  0.000000E+00  9.216783E-06
         2 0001-01-01 00:10:00.00  9.292819E-12  6.585677E+02  6.585677E+02  3.884376E+11
                       (01,02,08)  6.744857E-08  1.785704E-06  1.433648E-05  3.660355E-05
         3 0001-01-01 00:15:00.00  5.919952E-11  6.585677E+02  6.585677E+02  3.884376E+11
                       (01,79,16)  2.683565E-05  3.872450E-06  5.448021E-06  9.271617E-05
         4 0001-01-01 00:20:00.00  2.032845E-10  6.585677E+02  6.585677E+02  3.884376E+11
                       (01,79,16)  4.853376E-05  5.469638E-06  3.971285E-06  1.661158E-04
         5 0001-01-01 00:25:00.00  5.085293E-10  6.585677E+02  6.585677E+02  3.884376E+11
                       (01,80,16)  7.514637E-05  6.587797E-06  5.245548E-06  2.538855E-04
         6 0001-01-01 00:30:00.00  1.053310E-09  6.585677E+02  6.585677E+02  3.884376E+11
                       (01,79,16)  1.041252E-04  9.433299E-06  6.295808E-06  3.542434E-04
         7 0001-01-01 00:35:00.00  1.926035E-09  6.585677E+02  6.585677E+02  3.884376E+11
                       (01,80,16)  1.382411E-04  9.783359E-06  8.214995E-06  4.659667E-04
         8 0001-01-01 00:40:00.00  3.224088E-09  6.585677E+02  6.585677E+02  3.884376E+11
                       (01,80,16)  1.745639E-04  1.161275E-05  1.002326E-05  5.881354E-04
         9 0001-01-01 00:45:00.00  5.052887E-09  6.585677E+02  6.585677E+02  3.884376E+11
                       (01,79,16)  2.121585E-04  1.777320E-05  1.155590E-05  7.199859E-04
        10 0001-01-01 00:50:00.00  7.525193E-09  6.585677E+02  6.585677E+02  3.884376E+11
                       (01,79,16)  2.537663E-04  2.121547E-05  1.333615E-05  8.609283E-04
        11 0001-01-01 00:55:00.00  1.076072E-08  6.585677E+02  6.585677E+02  3.884376E+11
                       (01,79,16)  2.978929E-04  2.489574E-05  1.529213E-05  1.010450E-03
        12 0001-01-01 01:00:00.00  1.488569E-08  6.585677E+02  6.585677E+02  3.884376E+11
                       (01,79,16)  3.444103E-04  2.889259E-05  1.484444E-05  1.168121E-03
        13 0001-01-01 01:05:00.00  2.003229E-08  6.585677E+02  6.585677E+02  3.884376E+11
                       (01,79,16)  3.932029E-04  3.336090E-05  1.338884E-05  1.333570E-03
        14 0001-01-01 01:10:00.00  2.633831E-08  6.585677E+02  6.585677E+02  3.884376E+11
                       (01,79,16)  4.441684E-04  3.821334E-05  1.405362E-05  1.506465E-03
        15 0001-01-01 01:15:00.00  3.394688E-08  6.585677E+02  6.585677E+02  3.884376E+11
                       (01,79,16)  4.972176E-04  4.341715E-05  1.493125E-05  1.686511E-03
        16 0001-01-01 01:20:00.00  4.300621E-08  6.585677E+02  6.585677E+02  3.884376E+11
                       (01,79,16)  5.522692E-04  4.906445E-05  1.522314E-05  1.873445E-03
        17 0001-01-01 01:25:00.00  5.366908E-08  6.585677E+02  6.585677E+02  3.884376E+11
                       (01,79,16)  6.092488E-04  5.509506E-05  1.671165E-05  2.067028E-03
        18 0001-01-01 01:30:00.00  6.609266E-08  6.585677E+02  6.585677E+02  3.884376E+11
                       (01,79,16)  6.680907E-04  6.144804E-05  1.806475E-05  2.267044E-03
        19 0001-01-01 01:35:00.00  8.043830E-08  6.585677E+02  6.585677E+02  3.884376E+11
                       (01,79,16)  7.287343E-04  6.816551E-05  1.797043E-05  2.473291E-03
        20 0001-01-01 01:40:00.00  9.687128E-08  6.585677E+02  6.585677E+02  3.884376E+11
                       (01,79,16)  7.911236E-04  7.522792E-05  1.716203E-05  2.685588E-03
        21 0001-01-01 01:45:00.00  1.155605E-07  6.585677E+02  6.585677E+02  3.884376E+11
                       (01,79,16)  8.552058E-04  8.273756E-05  1.542027E-05  2.903758E-03
        22 0001-01-01 01:50:00.00  1.366783E-07  6.585677E+02  6.585677E+02  3.884376E+11
                       (01,79,16)  9.209298E-04  9.070753E-05  1.490285E-05  3.127646E-03
        23 0001-01-01 01:55:00.00  1.604004E-07  6.585677E+02  6.585677E+02  3.884376E+11
                       (01,79,16)  9.882491E-04  9.904364E-05  1.592104E-05  3.357108E-03
        24 0001-01-01 02:00:00.00  1.869057E-07  6.585677E+02  6.585677E+02  3.884376E+11
                       (01,79,16)  1.057121E-03  1.077489E-04  1.653081E-05  3.592008E-03
        25 0001-01-01 02:05:00.00  2.163758E-07  6.585677E+02  6.585677E+02  3.884376E+11
                       (01,79,16)  1.127506E-03  1.168395E-04  1.679096E-05  3.832215E-03
        26 0001-01-01 02:10:00.00  2.489953E-07  6.585677E+02  6.585677E+02  3.884376E+11
                       (01,79,16)  1.199365E-03  1.262579E-04  1.705952E-05  4.077610E-03
        27 0001-01-01 02:15:00.00  2.849512E-07  6.585677E+02  6.585677E+02  3.884376E+11
                       (01,79,16)  1.272664E-03  1.360035E-04  1.622811E-05  4.328081E-03
        28 0001-01-01 02:20:00.00  3.244331E-07  6.585677E+02  6.585677E+02  3.884376E+11
                       (01,79,16)  1.347369E-03  1.460977E-04  1.433442E-05  4.583516E-03
        29 0001-01-01 02:25:00.00  3.676326E-07  6.585677E+02  6.585677E+02  3.884376E+11
                       (01,79,16)  1.423449E-03  1.565784E-04  1.197592E-05  4.843811E-03
        30 0001-01-01 02:30:00.00  4.147431E-07  6.585677E+02  6.585677E+02  3.884376E+11
                       (01,79,16)  1.500871E-03  1.674895E-04  1.015036E-05  5.108868E-03
        31 0001-01-01 02:35:00.00  4.659599E-07  6.585677E+02  6.585677E+02  3.884376E+11
                       (01,79,16)  1.579605E-03  1.787702E-04  9.881594E-06  5.378601E-03
        32 0001-01-01 02:40:00.00  5.214799E-07  6.585677E+02  6.585677E+02  3.884376E+11
                       (01,79,16)  1.659623E-03  1.903567E-04  9.983200E-06  5.652930E-03
        33 0001-01-01 02:45:00.00  5.815011E-07  6.585677E+02  6.585677E+02  3.884376E+11
                       (01,78,16)  1.737157E-03  2.060398E-04  9.182482E-06  5.931770E-03
        34 0001-01-01 02:50:00.00  6.462231E-07  6.585677E+02  6.585677E+02  3.884376E+11
                       (01,80,15)  1.674893E-03  1.021452E-04  2.728794E-04  6.215041E-03
        35 0001-01-01 02:55:00.00  7.158463E-07  6.585677E+02  6.585677E+02  3.884376E+11
                       (01,80,15)  1.754948E-03  1.073513E-04  2.877371E-04  6.502671E-03
        36 0001-01-01 03:00:00.00  7.905724E-07  6.585677E+02  6.585677E+02  3.884376E+11
                       (01,80,15)  1.836281E-03  1.126693E-04  3.034183E-04  6.794586E-03
        37 0001-01-01 03:05:00.00  8.706039E-07  6.585677E+02  6.585677E+02  3.884376E+11
                       (01,80,15)  1.918869E-03  1.181053E-04  3.193639E-04  7.090716E-03
        38 0001-01-01 03:10:00.00  9.561440E-07  6.585677E+02  6.585677E+02  3.884376E+11
                       (01,80,15)  2.002694E-03  1.236644E-04  3.350363E-04  7.390994E-03
        39 0001-01-01 03:15:00.00  1.047397E-06  6.585677E+02  6.585677E+02  3.884376E+11
                       (01,80,15)  2.087735E-03  1.293354E-04  3.499523E-04  7.695362E-03
        40 0001-01-01 03:20:00.00  1.144568E-06  6.585677E+02  6.585677E+02  3.884376E+11
                       (01,80,15)  2.173976E-03  1.350922E-04  3.646063E-04  8.003771E-03
        41 0001-01-01 03:25:00.00  1.247861E-06  6.585677E+02  6.585677E+02  3.884376E+11
                       (01,80,15)  2.261400E-03  1.409281E-04  3.804137E-04  8.316164E-03
        42 0001-01-01 03:30:00.00  1.357482E-06  6.585677E+02  6.585677E+02  3.884376E+11
                       (01,80,15)  2.349990E-03  1.468520E-04  3.975889E-04  8.632486E-03
        43 0001-01-01 03:35:00.00  1.473637E-06  6.585677E+02  6.585677E+02  3.884376E+11
                       (01,80,15)  2.439730E-03  1.528656E-04  4.154011E-04  8.952682E-03
        44 0001-01-01 03:40:00.00  1.596530E-06  6.585677E+02  6.585677E+02  3.884376E+11
                       (01,80,15)  2.530606E-03  1.589698E-04  4.335524E-04  9.276704E-03
        45 0001-01-01 03:45:00.00  1.726367E-06  6.585677E+02  6.585677E+02  3.884376E+11
                       (01,80,15)  2.622601E-03  1.651681E-04  4.517904E-04  9.604504E-03
        46 0001-01-01 03:50:00.00  1.863352E-06  6.585677E+02  6.585677E+02  3.884376E+11
                       (01,80,15)  2.715702E-03  1.714614E-04  4.697093E-04  9.936038E-03
        47 0001-01-01 03:55:00.00  2.007687E-06  6.585677E+02  6.585677E+02  3.884376E+11
                       (01,80,15)  2.809894E-03  1.778429E-04  4.870631E-04  1.027127E-02
        48 0001-01-01 04:00:00.00  2.159577E-06  6.585677E+02  6.585677E+02  3.884376E+11
                       (01,80,14)  2.609823E-03  1.756154E-04  8.099362E-04  1.061015E-02
        49 0001-01-01 04:05:00.00  2.319222E-06  6.585677E+02  6.585677E+02  3.884376E+11
                       (01,80,14)  2.699401E-03  1.818625E-04  8.387879E-04  1.095266E-02
        50 0001-01-01 04:10:00.00  2.486825E-06  6.585677E+02  6.585677E+02  3.884376E+11
                       (01,80,14)  2.790030E-03  1.881701E-04  8.689688E-04  1.129876E-02
        51 0001-01-01 04:15:00.00  2.662586E-06  6.585677E+02  6.585677E+02  3.884376E+11
                       (01,80,14)  2.881698E-03  1.945481E-04  8.999231E-04  1.164839E-02
        52 0001-01-01 04:20:00.00  2.846705E-06  6.585677E+02  6.585677E+02  3.884376E+11
                       (01,80,14)  2.974394E-03  2.009972E-04  9.309293E-04  1.200153E-02
        53 0001-01-01 04:25:00.00  3.039380E-06  6.585677E+02  6.585677E+02  3.884376E+11
                       (01,80,14)  3.068106E-03  2.075142E-04  9.617762E-04  1.235814E-02
        54 0001-01-01 04:30:00.00  3.240809E-06  6.585677E+02  6.585677E+02  3.884376E+11
                       (01,80,14)  3.162824E-03  2.140941E-04  9.924718E-04  1.271819E-02
        55 0001-01-01 04:35:00.00  3.451190E-06  6.585677E+02  6.585677E+02  3.884376E+11
                       (01,80,14)  3.258537E-03  2.207293E-04  1.023123E-03  1.308166E-02
        56 0001-01-01 04:40:00.00  3.670716E-06  6.585677E+02  6.585677E+02  3.884376E+11
                       (01,80,14)  3.355235E-03  2.274080E-04  1.053986E-03  1.344852E-02
        57 0001-01-01 04:45:00.00  3.899583E-06  6.585677E+02  6.585677E+02  3.884376E+11
                       (01,01,14)  3.475956E-03  2.302655E-04  1.067148E-03  1.381875E-02
        58 0001-01-01 04:50:00.00  4.137982E-06  6.585677E+02  6.585677E+02  3.884376E+11
                       (01,01,14)  3.575213E-03  2.377874E-04  1.102522E-03  1.419232E-02
        59 0001-01-01 04:55:00.00  4.386103E-06  6.585677E+02  6.585677E+02  3.884376E+11
                       (01,01,14)  3.675465E-03  2.453198E-04  1.137444E-03  1.456919E-02
        60 0001-01-01 05:00:00.00  4.644133E-06  6.585677E+02  6.585677E+02  3.884376E+11
                       (01,01,14)  3.776703E-03  2.528528E-04  1.172713E-03  1.494934E-02
        61 0001-01-01 05:05:00.00  4.912258E-06  6.585677E+02  6.585677E+02  3.884376E+11
                       (01,01,13)  3.503043E-03  2.419080E-04  1.606935E-03  1.533275E-02
        62 0001-01-01 05:10:00.00  5.190661E-06  6.585677E+02  6.585677E+02  3.884376E+11
                       (01,01,13)  3.599365E-03  2.490223E-04  1.655335E-03  1.571939E-02
        63 0001-01-01 05:15:00.00  5.479524E-06  6.585677E+02  6.585677E+02  3.884376E+11
                       (01,01,13)  3.696654E-03  2.561457E-04  1.703854E-03  1.610926E-02
        64 0001-01-01 05:20:00.00  5.779025E-06  6.585677E+02  6.585677E+02  3.884376E+11
                       (01,01,13)  3.794905E-03  2.632806E-04  1.752209E-03  1.650232E-02
        65 0001-01-01 05:25:00.00  6.089341E-06  6.585677E+02  6.585677E+02  3.884376E+11
                       (01,01,13)  3.894112E-03  2.704278E-04  1.800169E-03  1.689856E-02
        66 0001-01-01 05:30:00.00  6.410647E-06  6.585677E+02  6.585677E+02  3.884376E+11
                       (01,01,13)  3.994269E-03  2.775812E-04  1.847578E-03  1.729796E-02
        67 0001-01-01 05:35:00.00  6.743118E-06  6.585677E+02  6.585677E+02  3.884376E+11
                       (01,01,13)  4.095371E-03  2.847267E-04  1.894650E-03  1.770049E-02
        68 0001-01-01 05:40:00.00  7.086923E-06  6.585677E+02  6.585677E+02  3.884376E+11
                       (01,01,13)  4.197414E-03  2.918543E-04  1.942003E-03  1.810613E-02
        69 0001-01-01 05:45:00.00  7.442233E-06  6.585677E+02  6.585677E+02  3.884376E+11
                       (01,01,13)  4.300392E-03  2.989667E-04  1.990047E-03  1.851486E-02
        70 0001-01-01 05:50:00.00  7.809212E-06  6.585677E+02  6.585677E+02  3.884376E+11
                       (01,01,13)  4.404302E-03  3.060723E-04  2.038582E-03  1.892668E-02
        71 0001-01-01 05:55:00.00  8.188026E-06  6.585677E+02  6.585677E+02  3.884376E+11
                       (01,01,13)  4.509139E-03  3.131769E-04  2.087121E-03  1.934157E-02
        72 0001-01-01 06:00:00.00  8.578835E-06  6.585677E+02  6.585677E+02  3.884376E+11
                       (01,01,13)  4.614897E-03  3.202818E-04  2.135325E-03  1.975951E-02
  WRT_HIS_NF90     - writing history     fields (Index=1,1) in record = 2
  WRT_AVG_NF90     - writing averaged    fields             in record = 1
  WRT_DIAGS_NF90   - writing diagnostics fields             in record = 1
        73 0001-01-01 06:05:00.00  8.981797E-06  6.585677E+02  6.585677E+02  3.884376E+11
                       (01,01,13)  4.721572E-03  3.273859E-04  2.183085E-03  2.018048E-02
        74 0001-01-01 06:10:00.00  9.397067E-06  6.585677E+02  6.585677E+02  3.884376E+11
                       (01,01,13)  4.829161E-03  3.344855E-04  2.230413E-03  2.060447E-02
        75 0001-01-01 06:15:00.00  9.824795E-06  6.585677E+02  6.585677E+02  3.884376E+11
                       (01,01,13)  4.937657E-03  3.415725E-04  2.277463E-03  2.103145E-02
        76 0001-01-01 06:20:00.00  1.026513E-05  6.585677E+02  6.585677E+02  3.884376E+11
                       (01,01,13)  5.047058E-03  3.486392E-04  2.324625E-03  2.146142E-02
        77 0001-01-01 06:25:00.00  1.071822E-05  6.585677E+02  6.585677E+02  3.884376E+11
                       (01,01,13)  5.157359E-03  3.556877E-04  2.372253E-03  2.189436E-02
        78 0001-01-01 06:30:00.00  1.118420E-05  6.585677E+02  6.585677E+02  3.884376E+11
                       (01,01,13)  5.268556E-03  3.627279E-04  2.420224E-03  2.233025E-02
        79 0001-01-01 06:35:00.00  1.166322E-05  6.585677E+02  6.585677E+02  3.884376E+11
                       (01,01,13)  5.380645E-03  3.697674E-04  2.468037E-03  2.276909E-02
        80 0001-01-01 06:40:00.00  1.215540E-05  6.585677E+02  6.585677E+02  3.884376E+11
                       (01,01,13)  5.493623E-03  3.768061E-04  2.515309E-03  2.321086E-02
        81 0001-01-01 06:45:00.00  1.266090E-05  6.585677E+02  6.585677E+02  3.884376E+11
                       (01,01,13)  5.607484E-03  3.838388E-04  2.562047E-03  2.365555E-02
        82 0001-01-01 06:50:00.00  1.317983E-05  6.585677E+02  6.585677E+02  3.884376E+11
                       (01,01,13)  5.722225E-03  3.908595E-04  2.608514E-03  2.410313E-02
        83 0001-01-01 06:55:00.00  1.371233E-05  6.585677E+02  6.585677E+02  3.884376E+11
                       (01,01,13)  5.837842E-03  3.978632E-04  2.655011E-03  2.455360E-02
        84 0001-01-01 07:00:00.00  1.425853E-05  6.585677E+02  6.585677E+02  3.884376E+11
                       (01,01,13)  5.954333E-03  4.048466E-04  2.701806E-03  2.500694E-02
        85 0001-01-01 07:05:00.00  1.481855E-05  6.585677E+02  6.585677E+02  3.884376E+11
                       (01,01,12)  5.537218E-03  3.740229E-04  3.322190E-03  2.546313E-02
        86 0001-01-01 07:10:00.00  1.539251E-05  6.585677E+02  6.585677E+02  3.884376E+11
                       (01,01,12)  5.648429E-03  3.804437E-04  3.379681E-03  2.592218E-02
        87 0001-01-01 07:15:00.00  1.598053E-05  6.585677E+02  6.585677E+02  3.884376E+11
                       (01,01,12)  5.760502E-03  3.868674E-04  3.437010E-03  2.638406E-02
        88 0001-01-01 07:20:00.00  1.658272E-05  6.585677E+02  6.585677E+02  3.884376E+11
                       (01,01,12)  5.873432E-03  3.932944E-04  3.493817E-03  2.684877E-02
        89 0001-01-01 07:25:00.00  1.719919E-05  6.585677E+02  6.585677E+02  3.884376E+11
                       (01,01,12)  5.987217E-03  3.997186E-04  3.550103E-03  2.731630E-02
        90 0001-01-01 07:30:00.00  1.783005E-05  6.585677E+02  6.585677E+02  3.884376E+11
                       (01,01,12)  6.101853E-03  4.061339E-04  3.606156E-03  2.778662E-02
        91 0001-01-01 07:35:00.00  1.847539E-05  6.585677E+02  6.585677E+02  3.884376E+11
                       (01,01,12)  6.217336E-03  4.125375E-04  3.662269E-03  2.825972E-02
        92 0001-01-01 07:40:00.00  1.913533E-05  6.585677E+02  6.585677E+02  3.884376E+11
                       (01,01,12)  6.333663E-03  4.189292E-04  3.718587E-03  2.873559E-02
        93 0001-01-01 07:45:00.00  1.980996E-05  6.585677E+02  6.585677E+02  3.884376E+11
                       (01,01,12)  6.450831E-03  4.253122E-04  3.775131E-03  2.921422E-02
        94 0001-01-01 07:50:00.00  2.049936E-05  6.585677E+02  6.585677E+02  3.884376E+11
                       (01,01,12)  6.568836E-03  4.316931E-04  3.831780E-03  2.969560E-02
        95 0001-01-01 07:55:00.00  2.120365E-05  6.585677E+02  6.585677E+02  3.884376E+11
                       (01,01,12)  6.687675E-03  4.380782E-04  3.888254E-03  3.017972E-02
        96 0001-01-01 08:00:00.00  2.192290E-05  6.585677E+02  6.585677E+02  3.884376E+11
                       (01,01,12)  6.807345E-03  4.444671E-04  3.944296E-03  3.066657E-02
        97 0001-01-01 08:05:00.00  2.265721E-05  6.585677E+02  6.585677E+02  3.884376E+11
                       (01,01,12)  6.927842E-03  4.508528E-04  3.999940E-03  3.115614E-02
        98 0001-01-01 08:10:00.00  2.340665E-05  6.585677E+02  6.585677E+02  3.884376E+11
                       (01,01,12)  7.049164E-03  4.572282E-04  4.055514E-03  3.164840E-02
        99 0001-01-01 08:15:00.00  2.417133E-05  6.585677E+02  6.585677E+02  3.884376E+11
                       (01,01,12)  7.171306E-03  4.635912E-04  4.111362E-03  3.214335E-02
       100 0001-01-01 08:20:00.00  2.495131E-05  6.585677E+02  6.585677E+02  3.884376E+11
                       (01,01,12)  7.294265E-03  4.699451E-04  4.167586E-03  3.264097E-02
       101 0001-01-01 08:25:00.00  2.574667E-05  6.585677E+02  6.585677E+02  3.884376E+11
                       (01,01,12)  7.418040E-03  4.762959E-04  4.224049E-03  3.314127E-02
       102 0001-01-01 08:30:00.00  2.655749E-05  6.585677E+02  6.585677E+02  3.884376E+11
                       (01,01,12)  7.542626E-03  4.826497E-04  4.280502E-03  3.364422E-02
       103 0001-01-01 08:35:00.00  2.738384E-05  6.585677E+02  6.585677E+02  3.884376E+11
                       (01,01,12)  7.668021E-03  4.890107E-04  4.336685E-03  3.414982E-02
       104 0001-01-01 08:40:00.00  2.822577E-05  6.585677E+02  6.585677E+02  3.884376E+11
                       (01,01,12)  7.794220E-03  4.953777E-04  4.392426E-03  3.465806E-02
       105 0001-01-01 08:45:00.00  2.908336E-05  6.585677E+02  6.585677E+02  3.884376E+11
                       (01,01,12)  7.921220E-03  5.017442E-04  4.447787E-03  3.516892E-02
       106 0001-01-01 08:50:00.00  2.995667E-05  6.585677E+02  6.585677E+02  3.884376E+11
                       (01,01,12)  8.049020E-03  5.081033E-04  4.503073E-03  3.568239E-02
       107 0001-01-01 08:55:00.00  3.084576E-05  6.585677E+02  6.585677E+02  3.884376E+11
                       (01,01,12)  8.177615E-03  5.144530E-04  4.558607E-03  3.619845E-02
       108 0001-01-01 09:00:00.00  3.175068E-05  6.585677E+02  6.585677E+02  3.884376E+11
                       (01,01,12)  8.307002E-03  5.207974E-04  4.614476E-03  3.671710E-02
       109 0001-01-01 09:05:00.00  3.267149E-05  6.585677E+02  6.585677E+02  3.884376E+11
                       (01,01,12)  8.437179E-03  5.271419E-04  4.670512E-03  3.723834E-02
       110 0001-01-01 09:10:00.00  3.360825E-05  6.585677E+02  6.585677E+02  3.884376E+11
                       (01,01,12)  8.568143E-03  5.334903E-04  4.726470E-03  3.776214E-02
       111 0001-01-01 09:15:00.00  3.456102E-05  6.585677E+02  6.585677E+02  3.884376E+11
                       (01,01,12)  8.699890E-03  5.398438E-04  4.782186E-03  3.828849E-02
       112 0001-01-01 09:20:00.00  3.552984E-05  6.585677E+02  6.585677E+02  3.884376E+11
                       (01,01,12)  8.832417E-03  5.461998E-04  4.837622E-03  3.881740E-02
       113 0001-01-01 09:25:00.00  3.651476E-05  6.585677E+02  6.585677E+02  3.884376E+11
                       (01,01,12)  8.965722E-03  5.525530E-04  4.892887E-03  3.934884E-02
       114 0001-01-01 09:30:00.00  3.751584E-05  6.585677E+02  6.585677E+02  3.884376E+11
                       (01,01,12)  9.099801E-03  5.588981E-04  4.948224E-03  3.988279E-02
       115 0001-01-01 09:35:00.00  3.853313E-05  6.585677E+02  6.585677E+02  3.884376E+11
                       (01,01,12)  9.234652E-03  5.652345E-04  5.003870E-03  4.041926E-02
       116 0001-01-01 09:40:00.00  3.956665E-05  6.585677E+02  6.585677E+02  3.884376E+11
                       (01,01,12)  9.370271E-03  5.715673E-04  5.059850E-03  4.095824E-02
       117 0001-01-01 09:45:00.00  4.061646E-05  6.585677E+02  6.585677E+02  3.884376E+11
                       (01,01,12)  9.506656E-03  5.779036E-04  5.115932E-03  4.149970E-02
       118 0001-01-01 09:50:00.00  4.168260E-05  6.585677E+02  6.585677E+02  3.884376E+11
                       (01,01,12)  9.643804E-03  5.842470E-04  5.171801E-03  4.204365E-02
       119 0001-01-01 09:55:00.00  4.276509E-05  6.585677E+02  6.585677E+02  3.884376E+11
                       (01,01,12)  9.781712E-03  5.905967E-04  5.227285E-03  4.259008E-02
       120 0001-01-01 10:00:00.00  4.386397E-05  6.585677E+02  6.585677E+02  3.884376E+11
                       (01,01,12)  9.920376E-03  5.969483E-04  5.282424E-03  4.313896E-02
       121 0001-01-01 10:05:00.00  4.497929E-05  6.585677E+02  6.585677E+02  3.884376E+11
                       (01,01,12)  1.005979E-02  6.032961E-04  5.337411E-03  4.369029E-02
       122 0001-01-01 10:10:00.00  4.611107E-05  6.585677E+02  6.585677E+02  3.884376E+11
                       (01,01,12)  1.019996E-02  6.096357E-04  5.392494E-03  4.424407E-02
       123 0001-01-01 10:15:00.00  4.725934E-05  6.585677E+02  6.585677E+02  3.884376E+11
                       (01,01,12)  1.034088E-02  6.159670E-04  5.447860E-03  4.480026E-02
       124 0001-01-01 10:20:00.00  4.842415E-05  6.585677E+02  6.585677E+02  3.884376E+11
                       (01,01,12)  1.048254E-02  6.222942E-04  5.503510E-03  4.535888E-02
       125 0001-01-01 10:25:00.00  4.960552E-05  6.585677E+02  6.585677E+02  3.884376E+11
                       (01,01,12)  1.062495E-02  6.286232E-04  5.559240E-03  4.591991E-02
       126 0001-01-01 10:30:00.00  5.080350E-05  6.585677E+02  6.585677E+02  3.884376E+11
                       (01,01,12)  1.076809E-02  6.349565E-04  5.614783E-03  4.648333E-02
       127 0001-01-01 10:35:00.00  5.201811E-05  6.585677E+02  6.585677E+02  3.884376E+11
                       (01,01,12)  1.091198E-02  6.412918E-04  5.670020E-03  4.704915E-02
       128 0001-01-01 10:40:00.00  5.324939E-05  6.585677E+02  6.585678E+02  3.884376E+11
                       (01,01,12)  1.105659E-02  6.476242E-04  5.725045E-03  4.761735E-02
       129 0001-01-01 10:45:00.00  5.449737E-05  6.585677E+02  6.585678E+02  3.884376E+11
                       (01,01,12)  1.120194E-02  6.539498E-04  5.780062E-03  4.818791E-02
       130 0001-01-01 10:50:00.00  5.576208E-05  6.585677E+02  6.585678E+02  3.884376E+11
                       (01,01,12)  1.134802E-02  6.602668E-04  5.835246E-03  4.876083E-02
       131 0001-01-01 10:55:00.00  5.704355E-05  6.585677E+02  6.585678E+02  3.884376E+11
                       (01,01,12)  1.149482E-02  6.665768E-04  5.890658E-03  4.933610E-02
       132 0001-01-01 11:00:00.00  5.834181E-05  6.585677E+02  6.585678E+02  3.884376E+11
                       (01,01,12)  1.164235E-02  6.728846E-04  5.946210E-03  4.991371E-02
       133 0001-01-01 11:05:00.00  5.965688E-05  6.585677E+02  6.585678E+02  3.884376E+11
                       (01,01,12)  1.179059E-02  6.791951E-04  6.001684E-03  5.049364E-02
       134 0001-01-01 11:10:00.00  6.098878E-05  6.585677E+02  6.585678E+02  3.884376E+11
                       (01,01,12)  1.193956E-02  6.855098E-04  6.056848E-03  5.107590E-02
       135 0001-01-01 11:15:00.00  6.233756E-05  6.585677E+02  6.585678E+02  3.884376E+11
                       (01,01,12)  1.208924E-02  6.918253E-04  6.111622E-03  5.166047E-02
       136 0001-01-01 11:20:00.00  6.370323E-05  6.585677E+02  6.585678E+02  3.884376E+11
                       (01,01,12)  1.223963E-02  6.981354E-04  6.166148E-03  5.224734E-02
       137 0001-01-01 11:25:00.00  6.508583E-05  6.585677E+02  6.585678E+02  3.884376E+11
                       (01,01,12)  1.239073E-02  7.044354E-04  6.220689E-03  5.283649E-02
       138 0001-01-01 11:30:00.00  6.648539E-05  6.585677E+02  6.585678E+02  3.884376E+11
                       (01,01,12)  1.254253E-02  7.107241E-04  6.275446E-03  5.342793E-02
       139 0001-01-01 11:35:00.00  6.790195E-05  6.585677E+02  6.585678E+02  3.884376E+11
                       (01,01,12)  1.269504E-02  7.170039E-04  6.330455E-03  5.402163E-02
       140 0001-01-01 11:40:00.00  6.933553E-05  6.585677E+02  6.585678E+02  3.884376E+11
                       (01,01,12)  1.284826E-02  7.232793E-04  6.385592E-03  5.461759E-02
       141 0001-01-01 11:45:00.00  7.078619E-05  6.585677E+02  6.585678E+02  3.884376E+11
                       (01,01,12)  1.300217E-02  7.295539E-04  6.440649E-03  5.521580E-02
       142 0001-01-01 11:50:00.00  7.225395E-05  6.585677E+02  6.585678E+02  3.884376E+11
                       (01,01,12)  1.315677E-02  7.358283E-04  6.495444E-03  5.581625E-02
       143 0001-01-01 11:55:00.00  7.373886E-05  6.585677E+02  6.585678E+02  3.884376E+11
                       (01,01,12)  1.331207E-02  7.420994E-04  6.549938E-03  5.641894E-02
       144 0001-01-01 12:00:00.00  7.524095E-05  6.585677E+02  6.585678E+02  3.884376E+11
                       (01,01,12)  1.346806E-02  7.483620E-04  6.604266E-03  5.702385E-02
  WRT_HIS_NF90     - writing history     fields (Index=1,1) in record = 3
  WRT_AVG_NF90     - writing averaged    fields             in record = 2
  WRT_DIAGS_NF90   - writing diagnostics fields             in record = 2
       145 0001-01-01 12:05:00.00  7.676025E-05  6.585677E+02  6.585678E+02  3.884376E+11
                       (01,01,12)  1.362474E-02  7.546129E-04  6.658640E-03  5.763097E-02
       146 0001-01-01 12:10:00.00  7.829682E-05  6.585677E+02  6.585678E+02  3.884376E+11
                       (01,01,12)  1.378211E-02  7.608530E-04  6.713186E-03  5.824029E-02
       147 0001-01-01 12:15:00.00  7.985067E-05  6.585677E+02  6.585678E+02  3.884376E+11
                       (01,01,12)  1.394015E-02  7.670859E-04  6.767852E-03  5.885180E-02
       148 0001-01-01 12:20:00.00  8.142186E-05  6.585677E+02  6.585678E+02  3.884376E+11
                       (01,01,12)  1.409888E-02  7.733155E-04  6.822463E-03  5.946549E-02
       149 0001-01-01 12:25:00.00  8.301043E-05  6.585677E+02  6.585678E+02  3.884376E+11
                       (01,01,12)  1.425829E-02  7.795436E-04  6.876832E-03  6.008137E-02
       150 0001-01-01 12:30:00.00  8.461641E-05  6.585677E+02  6.585678E+02  3.884376E+11
                       (01,01,12)  1.441837E-02  7.857690E-04  6.930862E-03  6.069940E-02
       151 0001-01-01 12:35:00.00  8.623986E-05  6.585677E+02  6.585678E+02  3.884376E+11
                       (01,01,12)  1.457912E-02  7.919873E-04  6.984596E-03  6.131960E-02
       152 0001-01-01 12:40:00.00  8.788082E-05  6.585677E+02  6.585678E+02  3.884376E+11
                       (01,01,12)  1.474054E-02  7.981935E-04  7.038213E-03  6.194193E-02
       153 0001-01-01 12:45:00.00  8.953937E-05  6.585677E+02  6.585678E+02  3.884376E+11
                       (01,01,12)  1.490262E-02  8.043843E-04  7.091934E-03  6.256640E-02
       154 0001-01-01 12:50:00.00  9.121554E-05  6.585677E+02  6.585678E+02  3.884376E+11
                       (01,01,12)  1.506537E-02  8.105610E-04  7.145877E-03  6.319299E-02
       155 0001-01-01 12:55:00.00  9.290941E-05  6.585677E+02  6.585678E+02  3.884376E+11
                       (01,01,12)  1.522879E-02  8.167276E-04  7.199977E-03  6.382170E-02
       156 0001-01-01 13:00:00.00  9.462104E-05  6.585677E+02  6.585678E+02  3.884376E+11
                       (01,01,12)  1.539286E-02  8.228883E-04  7.254035E-03  6.445252E-02
       157 0001-01-01 13:05:00.00  9.635049E-05  6.585677E+02  6.585678E+02  3.884376E+11
                       (01,01,12)  1.555759E-02  8.290445E-04  7.307854E-03  6.508544E-02
       158 0001-01-01 13:10:00.00  9.809782E-05  6.585677E+02  6.585678E+02  3.884376E+11
                       (01,01,12)  1.572297E-02  8.351948E-04  7.361350E-03  6.572045E-02
       159 0001-01-01 13:15:00.00  9.986311E-05  6.585677E+02  6.585678E+02  3.884376E+11
                       (01,01,12)  1.588900E-02  8.413352E-04  7.414584E-03  6.635754E-02
       160 0001-01-01 13:20:00.00  1.016464E-04  6.585677E+02  6.585678E+02  3.884376E+11
                       (01,01,12)  1.605568E-02  8.474619E-04  7.467714E-03  6.699669E-02
       161 0001-01-01 13:25:00.00  1.034478E-04  6.585677E+02  6.585678E+02  3.884376E+11
                       (01,01,12)  1.622301E-02  8.535736E-04  7.520893E-03  6.763791E-02
       162 0001-01-01 13:30:00.00  1.052674E-04  6.585677E+02  6.585678E+02  3.884376E+11
                       (01,01,12)  1.639098E-02  8.596721E-04  7.574172E-03  6.828117E-02
       163 0001-01-01 13:35:00.00  1.071051E-04  6.585677E+02  6.585678E+02  3.884376E+11
                       (01,01,12)  1.655959E-02  8.657612E-04  7.627451E-03  6.892648E-02
       164 0001-01-01 13:40:00.00  1.089612E-04  6.585677E+02  6.585678E+02  3.884376E+11
                       (01,01,12)  1.672884E-02  8.718437E-04  7.680545E-03  6.957382E-02
       165 0001-01-01 13:45:00.00  1.108357E-04  6.585677E+02  6.585678E+02  3.884376E+11
                       (01,01,12)  1.689873E-02  8.779192E-04  7.733317E-03  7.022319E-02
       166 0001-01-01 13:50:00.00  1.127287E-04  6.585677E+02  6.585678E+02  3.884376E+11
                       (01,01,12)  1.706924E-02  8.839843E-04  7.785769E-03  7.087457E-02
       167 0001-01-01 13:55:00.00  1.146402E-04  6.585677E+02  6.585678E+02  3.884376E+11
                       (01,01,12)  1.724039E-02  8.900348E-04  7.838039E-03  7.152795E-02
       168 0001-01-01 14:00:00.00  1.165705E-04  6.585677E+02  6.585678E+02  3.884376E+11
                       (01,01,12)  1.741216E-02  8.960673E-04  7.890311E-03  7.218332E-02
       169 0001-01-01 14:05:00.00  1.185195E-04  6.585677E+02  6.585678E+02  3.884376E+11
                       (01,01,12)  1.758456E-02  9.020814E-04  7.942710E-03  7.284068E-02
       170 0001-01-01 14:10:00.00  1.204873E-04  6.585677E+02  6.585678E+02  3.884376E+11
                       (01,01,12)  1.775758E-02  9.080799E-04  7.995238E-03  7.350001E-02
       171 0001-01-01 14:15:00.00  1.224742E-04  6.585677E+02  6.585678E+02  3.884376E+11
                       (01,01,12)  1.793123E-02  9.140667E-04  8.047764E-03  7.416132E-02
       172 0001-01-01 14:20:00.00  1.244802E-04  6.585677E+02  6.585678E+02  3.884376E+11
                       (01,01,12)  1.810548E-02  9.200447E-04  8.100090E-03  7.482458E-02
       173 0001-01-01 14:25:00.00  1.265054E-04  6.585677E+02  6.585678E+02  3.884376E+11
                       (01,01,12)  1.828036E-02  9.260137E-04  8.152075E-03  7.548979E-02
       174 0001-01-01 14:30:00.00  1.285499E-04  6.585677E+02  6.585678E+02  3.884376E+11
                       (01,01,12)  1.845584E-02  9.319706E-04  8.203717E-03  7.615694E-02
       175 0001-01-01 14:35:00.00  1.306138E-04  6.585677E+02  6.585678E+02  3.884376E+11
                       (01,01,12)  1.863194E-02  9.379113E-04  8.255145E-03  7.682602E-02
       176 0001-01-01 14:40:00.00  1.326973E-04  6.585677E+02  6.585678E+02  3.884376E+11
                       (01,01,12)  1.880864E-02  9.438336E-04  8.306519E-03  7.749701E-02
       177 0001-01-01 14:45:00.00  1.348005E-04  6.585677E+02  6.585678E+02  3.884376E+11
                       (01,01,12)  1.898594E-02  9.497378E-04  8.357930E-03  7.816992E-02
       178 0001-01-01 14:50:00.00  1.369234E-04  6.585677E+02  6.585678E+02  3.884376E+11
                       (01,01,12)  1.916385E-02  9.556263E-04  8.409347E-03  7.884472E-02
       179 0001-01-01 14:55:00.00  1.390663E-04  6.585677E+02  6.585678E+02  3.884376E+11
                       (01,01,12)  1.934235E-02  9.615021E-04  8.460643E-03  7.952143E-02
       180 0001-01-01 15:00:00.00  1.412293E-04  6.585677E+02  6.585678E+02  3.884376E+11
                       (01,01,12)  1.952145E-02  9.673663E-04  8.511675E-03  8.020001E-02
       181 0001-01-01 15:05:00.00  1.434125E-04  6.585677E+02  6.585678E+02  3.884376E+11
                       (01,01,12)  1.970114E-02  9.732171E-04  8.562380E-03  8.088047E-02
       182 0001-01-01 15:10:00.00  1.456160E-04  6.585677E+02  6.585678E+02  3.884376E+11
                       (01,01,12)  1.988143E-02  9.790507E-04  8.612825E-03  8.156279E-02
       183 0001-01-01 15:15:00.00  1.478400E-04  6.585677E+02  6.585678E+02  3.884376E+11
                       (01,01,12)  2.006230E-02  9.848633E-04  8.663170E-03  8.224696E-02
       184 0001-01-01 15:20:00.00  1.500848E-04  6.585677E+02  6.585678E+02  3.884376E+11
                       (01,01,12)  2.024376E-02  9.906539E-04  8.713561E-03  8.293298E-02
       185 0001-01-01 15:25:00.00  1.523503E-04  6.585677E+02  6.585678E+02  3.884376E+11
                       (01,01,12)  2.042580E-02  9.964243E-04  8.764032E-03  8.362083E-02
       186 0001-01-01 15:30:00.00  1.546369E-04  6.585677E+02  6.585678E+02  3.884376E+11
                       (01,01,12)  2.060842E-02  1.002178E-03  8.814490E-03  8.431051E-02
       187 0001-01-01 15:35:00.00  1.569446E-04  6.585677E+02  6.585678E+02  3.884376E+11
                       (01,01,12)  2.079162E-02  1.007917E-03  8.864768E-03  8.500201E-02
       188 0001-01-01 15:40:00.00  1.592737E-04  6.585677E+02  6.585678E+02  3.884376E+11
                       (01,01,12)  2.097540E-02  1.013644E-03  8.914717E-03  8.569531E-02
       189 0001-01-01 15:45:00.00  1.616242E-04  6.585677E+02  6.585678E+02  3.884376E+11
                       (01,01,12)  2.115974E-02  1.019356E-03  8.964288E-03  8.639042E-02
       190 0001-01-01 15:50:00.00  1.639964E-04  6.585677E+02  6.585678E+02  3.884376E+11
                       (01,01,12)  2.134466E-02  1.025049E-03  9.013551E-03  8.708731E-02
       191 0001-01-01 15:55:00.00  1.663904E-04  6.585677E+02  6.585678E+02  3.884376E+11
                       (01,01,12)  2.153014E-02  1.030721E-03  9.062653E-03  8.778598E-02
       192 0001-01-01 16:00:00.00  1.688064E-04  6.585677E+02  6.585678E+02  3.884376E+11
                       (01,01,12)  2.171619E-02  1.036370E-03  9.111727E-03  8.848643E-02
       193 0001-01-01 16:05:00.00  1.712447E-04  6.585677E+02  6.585679E+02  3.884376E+11
                       (01,01,12)  2.190280E-02  1.041998E-03  9.160801E-03  8.918863E-02
       194 0001-01-01 16:10:00.00  1.737053E-04  6.585677E+02  6.585679E+02  3.884376E+11
                       (01,01,12)  2.208997E-02  1.047607E-03  9.209790E-03  8.989258E-02
       195 0001-01-01 16:15:00.00  1.761885E-04  6.585677E+02  6.585679E+02  3.884376E+11
                       (01,01,12)  2.227769E-02  1.053200E-03  9.258562E-03  9.059827E-02
       196 0001-01-01 16:20:00.00  1.786945E-04  6.585677E+02  6.585679E+02  3.884376E+11
                       (01,01,12)  2.246597E-02  1.058775E-03  9.307024E-03  9.130570E-02
       197 0001-01-01 16:25:00.00  1.812235E-04  6.585677E+02  6.585679E+02  3.884376E+11
                       (01,01,12)  2.265480E-02  1.064331E-03  9.355187E-03  9.201485E-02
       198 0001-01-01 16:30:00.00  1.837757E-04  6.585677E+02  6.585679E+02  3.884376E+11
                       (01,01,12)  2.284418E-02  1.069864E-03  9.403153E-03  9.272571E-02
       199 0001-01-01 16:35:00.00  1.863514E-04  6.585677E+02  6.585679E+02  3.884376E+11
                       (01,01,12)  2.303410E-02  1.075371E-03  9.451054E-03  9.343828E-02
       200 0001-01-01 16:40:00.00  1.889507E-04  6.585677E+02  6.585679E+02  3.884376E+11
                       (01,01,12)  2.322457E-02  1.080854E-03  9.498966E-03  9.415254E-02
       201 0001-01-01 16:45:00.00  1.915738E-04  6.585677E+02  6.585679E+02  3.884376E+11
                       (01,01,12)  2.341558E-02  1.086316E-03  9.546852E-03  9.486848E-02
       202 0001-01-01 16:50:00.00  1.942210E-04  6.585677E+02  6.585679E+02  3.884376E+11
                       (01,01,12)  2.360712E-02  1.091759E-03  9.594572E-03  9.558610E-02
       203 0001-01-01 16:55:00.00  1.968925E-04  6.585677E+02  6.585679E+02  3.884376E+11
                       (01,01,12)  2.379920E-02  1.097185E-03  9.641974E-03  9.630539E-02
       204 0001-01-01 17:00:00.00  1.995885E-04  6.585677E+02  6.585679E+02  3.884376E+11
                       (01,01,12)  2.399181E-02  1.102592E-03  9.688978E-03  9.702634E-02
       205 0001-01-01 17:05:00.00  2.023093E-04  6.585677E+02  6.585679E+02  3.884376E+11
                       (01,01,12)  2.418496E-02  1.107979E-03  9.735621E-03  9.774893E-02
       206 0001-01-01 17:10:00.00  2.050550E-04  6.585677E+02  6.585679E+02  3.884376E+11
                       (01,01,12)  2.437863E-02  1.113341E-03  9.782026E-03  9.847316E-02
       207 0001-01-01 17:15:00.00  2.078260E-04  6.585677E+02  6.585679E+02  3.884376E+11
                       (01,01,12)  2.457282E-02  1.118677E-03  9.828329E-03  9.919901E-02
       208 0001-01-01 17:20:00.00  2.106223E-04  6.585677E+02  6.585679E+02  3.884376E+11
                       (01,01,12)  2.476753E-02  1.123988E-03  9.874599E-03  9.992648E-02
       209 0001-01-01 17:25:00.00  2.134444E-04  6.585677E+02  6.585679E+02  3.884376E+11
                       (01,01,12)  2.496277E-02  1.129274E-03  9.920806E-03  1.006556E-01
       210 0001-01-01 17:30:00.00  2.162924E-04  6.585677E+02  6.585679E+02  3.884376E+11
                       (01,01,12)  2.515852E-02  1.134539E-03  9.966842E-03  1.013862E-01
       211 0001-01-01 17:35:00.00  2.191666E-04  6.585677E+02  6.585679E+02  3.884376E+11
                       (01,01,12)  2.535478E-02  1.139784E-03  1.001259E-02  1.021185E-01
       212 0001-01-01 17:40:00.00  2.220673E-04  6.585677E+02  6.585679E+02  3.884376E+11
                       (01,01,12)  2.555155E-02  1.145006E-03  1.005802E-02  1.028524E-01
       213 0001-01-01 17:45:00.00  2.249946E-04  6.585677E+02  6.585679E+02  3.884376E+11
                       (01,01,12)  2.574884E-02  1.150204E-03  1.010317E-02  1.035878E-01
       214 0001-01-01 17:50:00.00  2.279490E-04  6.585677E+02  6.585679E+02  3.884376E+11
                       (01,01,12)  2.594662E-02  1.155374E-03  1.014816E-02  1.043248E-01
       215 0001-01-01 17:55:00.00  2.309306E-04  6.585677E+02  6.585679E+02  3.884376E+11
                       (01,01,12)  2.614491E-02  1.160517E-03  1.019309E-02  1.050633E-01
       216 0001-01-01 18:00:00.00  2.339397E-04  6.585677E+02  6.585679E+02  3.884376E+11
                       (01,01,12)  2.634370E-02  1.165634E-03  1.023794E-02  1.058034E-01
  WRT_HIS_NF90     - writing history     fields (Index=1,1) in record = 4
  WRT_AVG_NF90     - writing averaged    fields             in record = 3
  WRT_DIAGS_NF90   - writing diagnostics fields             in record = 3
       217 0001-01-01 18:05:00.00  2.369766E-04  6.585677E+02  6.585679E+02  3.884376E+11
                       (01,01,12)  2.654299E-02  1.170729E-03  1.028263E-02  1.065450E-01
       218 0001-01-01 18:10:00.00  2.400414E-04  6.585677E+02  6.585679E+02  3.884376E+11
                       (01,01,12)  2.674277E-02  1.175802E-03  1.032704E-02  1.072881E-01
       219 0001-01-01 18:15:00.00  2.431346E-04  6.585677E+02  6.585679E+02  3.884376E+11
                       (01,01,12)  2.694304E-02  1.180855E-03  1.037106E-02  1.080327E-01
       220 0001-01-01 18:20:00.00  2.462564E-04  6.585677E+02  6.585679E+02  3.884376E+11
                       (01,01,12)  2.714380E-02  1.185884E-03  1.041469E-02  1.087789E-01
       221 0001-01-01 18:25:00.00  2.494069E-04  6.585677E+02  6.585679E+02  3.884376E+11
                       (01,01,12)  2.734505E-02  1.190887E-03  1.045802E-02  1.095265E-01
       222 0001-01-01 18:30:00.00  2.525866E-04  6.585677E+02  6.585679E+02  3.884376E+11
                       (01,01,12)  2.754678E-02  1.195861E-03  1.050118E-02  1.102756E-01
       223 0001-01-01 18:35:00.00  2.557956E-04  6.585677E+02  6.585679E+02  3.884376E+11
                       (01,01,12)  2.774899E-02  1.200805E-03  1.054428E-02  1.110262E-01
       224 0001-01-01 18:40:00.00  2.590344E-04  6.585677E+02  6.585679E+02  3.884376E+11
                       (01,01,12)  2.795167E-02  1.205723E-03  1.058732E-02  1.117783E-01
       225 0001-01-01 18:45:00.00  2.623031E-04  6.585677E+02  6.585679E+02  3.884376E+11
                       (01,01,12)  2.815484E-02  1.210615E-03  1.063022E-02  1.125318E-01
       226 0001-01-01 18:50:00.00  2.656020E-04  6.585677E+02  6.585679E+02  3.884376E+11
                       (01,01,12)  2.835847E-02  1.215483E-03  1.067286E-02  1.132867E-01
       227 0001-01-01 18:55:00.00  2.689315E-04  6.585677E+02  6.585679E+02  3.884376E+11
                       (01,01,12)  2.856257E-02  1.220327E-03  1.071518E-02  1.140431E-01
       228 0001-01-01 19:00:00.00  2.722919E-04  6.585677E+02  6.585680E+02  3.884376E+11
                       (01,01,12)  2.876714E-02  1.225146E-03  1.075717E-02  1.148009E-01
       229 0001-01-01 19:05:00.00  2.756834E-04  6.585677E+02  6.585680E+02  3.884376E+11
                       (01,01,12)  2.897218E-02  1.229937E-03  1.079892E-02  1.155602E-01
       230 0001-01-01 19:10:00.00  2.791063E-04  6.585677E+02  6.585680E+02  3.884376E+11
                       (01,01,12)  2.917767E-02  1.234698E-03  1.084051E-02  1.163208E-01
       231 0001-01-01 19:15:00.00  2.825609E-04  6.585677E+02  6.585680E+02  3.884376E+11
                       (01,01,12)  2.938362E-02  1.239431E-03  1.088200E-02  1.170828E-01
       232 0001-01-01 19:20:00.00  2.860476E-04  6.585677E+02  6.585680E+02  3.884376E+11
                       (01,01,12)  2.959003E-02  1.244138E-03  1.092333E-02  1.178462E-01
       233 0001-01-01 19:25:00.00  2.895665E-04  6.585677E+02  6.585680E+02  3.884376E+11
                       (01,01,12)  2.979689E-02  1.248821E-03  1.096440E-02  1.186110E-01
       234 0001-01-01 19:30:00.00  2.931179E-04  6.585677E+02  6.585680E+02  3.884376E+11
                       (01,01,12)  3.000420E-02  1.253481E-03  1.100512E-02  1.193772E-01
       235 0001-01-01 19:35:00.00  2.967023E-04  6.585677E+02  6.585680E+02  3.884376E+11
                       (01,01,12)  3.021196E-02  1.258116E-03  1.104545E-02  1.201447E-01
       236 0001-01-01 19:40:00.00  3.003198E-04  6.585677E+02  6.585680E+02  3.884376E+11
                       (01,01,12)  3.042016E-02  1.262723E-03  1.108545E-02  1.209135E-01
       237 0001-01-01 19:45:00.00  3.039708E-04  6.585677E+02  6.585680E+02  3.884376E+11
                       (01,01,12)  3.062880E-02  1.267301E-03  1.112523E-02  1.216837E-01
       238 0001-01-01 19:50:00.00  3.076555E-04  6.585677E+02  6.585680E+02  3.884376E+11
                       (01,01,12)  3.083788E-02  1.271848E-03  1.116491E-02  1.224552E-01
       239 0001-01-01 19:55:00.00  3.113743E-04  6.585677E+02  6.585680E+02  3.884376E+11
                       (01,01,12)  3.104739E-02  1.276364E-03  1.120452E-02  1.232280E-01
       240 0001-01-01 20:00:00.00  3.151275E-04  6.585677E+02  6.585680E+02  3.884376E+11
                       (01,01,12)  3.125734E-02  1.280854E-03  1.124402E-02  1.240022E-01
       241 0001-01-01 20:05:00.00  3.189154E-04  6.585677E+02  6.585680E+02  3.884376E+11
                       (01,01,12)  3.146771E-02  1.285317E-03  1.128329E-02  1.247776E-01
       242 0001-01-01 20:10:00.00  3.227382E-04  6.585677E+02  6.585680E+02  3.884376E+11
                       (01,01,12)  3.167852E-02  1.289756E-03  1.132224E-02  1.255543E-01
       243 0001-01-01 20:15:00.00  3.265964E-04  6.585677E+02  6.585680E+02  3.884376E+11
                       (01,01,12)  3.188974E-02  1.294169E-03  1.136085E-02  1.263323E-01
       244 0001-01-01 20:20:00.00  3.304901E-04  6.585677E+02  6.585680E+02  3.884376E+11
                       (01,01,12)  3.210139E-02  1.298554E-03  1.139915E-02  1.271115E-01
       245 0001-01-01 20:25:00.00  3.344197E-04  6.585677E+02  6.585680E+02  3.884376E+11
                       (01,01,12)  3.231345E-02  1.302910E-03  1.143724E-02  1.278921E-01
       246 0001-01-01 20:30:00.00  3.383855E-04  6.585677E+02  6.585680E+02  3.884376E+11
                       (01,01,12)  3.252594E-02  1.307237E-03  1.147517E-02  1.286738E-01
       247 0001-01-01 20:35:00.00  3.423877E-04  6.585677E+02  6.585680E+02  3.884376E+11
                       (01,01,12)  3.273883E-02  1.311535E-03  1.151295E-02  1.294568E-01
       248 0001-01-01 20:40:00.00  3.464267E-04  6.585677E+02  6.585680E+02  3.884376E+11
                       (01,01,12)  3.295213E-02  1.315808E-03  1.155051E-02  1.302410E-01
       249 0001-01-01 20:45:00.00  3.505027E-04  6.585677E+02  6.585680E+02  3.884376E+11
                       (01,01,12)  3.316584E-02  1.320056E-03  1.158776E-02  1.310264E-01
       250 0001-01-01 20:50:00.00  3.546160E-04  6.585677E+02  6.585680E+02  3.884376E+11
                       (01,01,12)  3.337995E-02  1.324279E-03  1.162466E-02  1.318131E-01
       251 0001-01-01 20:55:00.00  3.587670E-04  6.585677E+02  6.585680E+02  3.884376E+11
                       (01,01,12)  3.359446E-02  1.328475E-03  1.166122E-02  1.326009E-01
       252 0001-01-01 21:00:00.00  3.629558E-04  6.585677E+02  6.585680E+02  3.884376E+11
                       (01,01,12)  3.380937E-02  1.332641E-03  1.169753E-02  1.333899E-01
       253 0001-01-01 21:05:00.00  3.671829E-04  6.585677E+02  6.585680E+02  3.884376E+11
                       (01,01,12)  3.402467E-02  1.336776E-03  1.173371E-02  1.341801E-01
       254 0001-01-01 21:10:00.00  3.714485E-04  6.585677E+02  6.585681E+02  3.884376E+11
                       (01,01,12)  3.424037E-02  1.340881E-03  1.176980E-02  1.349714E-01
       255 0001-01-01 21:15:00.00  3.757530E-04  6.585677E+02  6.585681E+02  3.884376E+11
                       (01,01,12)  3.445645E-02  1.344958E-03  1.180579E-02  1.357639E-01
       256 0001-01-01 21:20:00.00  3.800965E-04  6.585677E+02  6.585681E+02  3.884376E+11
                       (01,01,12)  3.467292E-02  1.349009E-03  1.184159E-02  1.365575E-01
       257 0001-01-01 21:25:00.00  3.844794E-04  6.585677E+02  6.585681E+02  3.884376E+11
                       (01,01,12)  3.488977E-02  1.353035E-03  1.187710E-02  1.373523E-01
       258 0001-01-01 21:30:00.00  3.889021E-04  6.585677E+02  6.585681E+02  3.884376E+11
                       (01,01,12)  3.510701E-02  1.357036E-03  1.191226E-02  1.381482E-01
       259 0001-01-01 21:35:00.00  3.933646E-04  6.585677E+02  6.585681E+02  3.884376E+11
                       (01,01,12)  3.532462E-02  1.361011E-03  1.194709E-02  1.389452E-01
       260 0001-01-01 21:40:00.00  3.978674E-04  6.585677E+02  6.585681E+02  3.884376E+11
                       (01,01,12)  3.554260E-02  1.364958E-03  1.198166E-02  1.397433E-01
       261 0001-01-01 21:45:00.00  4.024107E-04  6.585677E+02  6.585681E+02  3.884376E+11
                       (01,01,12)  3.576095E-02  1.368876E-03  1.201604E-02  1.405425E-01
       262 0001-01-01 21:50:00.00  4.069947E-04  6.585677E+02  6.585681E+02  3.884376E+11
                       (01,01,12)  3.597968E-02  1.372767E-03  1.205028E-02  1.413428E-01
       263 0001-01-01 21:55:00.00  4.116198E-04  6.585677E+02  6.585681E+02  3.884376E+11
                       (01,01,12)  3.619876E-02  1.376631E-03  1.208433E-02  1.421441E-01
       264 0001-01-01 22:00:00.00  4.162862E-04  6.585677E+02  6.585681E+02  3.884376E+11
                       (01,01,12)  3.641821E-02  1.380470E-03  1.211813E-02  1.429465E-01
       265 0001-01-01 22:05:00.00  4.209941E-04  6.585677E+02  6.585681E+02  3.884376E+11
                       (01,01,12)  3.663802E-02  1.384285E-03  1.215163E-02  1.437500E-01
       266 0001-01-01 22:10:00.00  4.257439E-04  6.585677E+02  6.585681E+02  3.884376E+11
                       (01,01,12)  3.685818E-02  1.388074E-03  1.218481E-02  1.445545E-01
       267 0001-01-01 22:15:00.00  4.305358E-04  6.585677E+02  6.585681E+02  3.884376E+11
                       (01,01,12)  3.707870E-02  1.391835E-03  1.221774E-02  1.453600E-01
       268 0001-01-01 22:20:00.00  4.353701E-04  6.585677E+02  6.585681E+02  3.884376E+11
                       (01,01,12)  3.729956E-02  1.395568E-03  1.225051E-02  1.461665E-01
       269 0001-01-01 22:25:00.00  4.402470E-04  6.585677E+02  6.585681E+02  3.884376E+11
                       (01,01,12)  3.752078E-02  1.399272E-03  1.228317E-02  1.469741E-01
       270 0001-01-01 22:30:00.00  4.451668E-04  6.585677E+02  6.585681E+02  3.884376E+11
                       (01,01,12)  3.774234E-02  1.402948E-03  1.231574E-02  1.477826E-01
       271 0001-01-01 22:35:00.00  4.501298E-04  6.585677E+02  6.585681E+02  3.884376E+11
                       (01,01,12)  3.796423E-02  1.406600E-03  1.234815E-02  1.485921E-01
       272 0001-01-01 22:40:00.00  4.551362E-04  6.585677E+02  6.585681E+02  3.884376E+11
                       (01,01,12)  3.818647E-02  1.410228E-03  1.238032E-02  1.494026E-01
       273 0001-01-01 22:45:00.00  4.601863E-04  6.585677E+02  6.585681E+02  3.884376E+11
                       (01,01,12)  3.840904E-02  1.413833E-03  1.241216E-02  1.502141E-01
       274 0001-01-01 22:50:00.00  4.652802E-04  6.585677E+02  6.585682E+02  3.884376E+11
                       (01,01,12)  3.863194E-02  1.417415E-03  1.244366E-02  1.510265E-01
       275 0001-01-01 22:55:00.00  4.704182E-04  6.585677E+02  6.585682E+02  3.884376E+11
                       (01,01,12)  3.885517E-02  1.420971E-03  1.247488E-02  1.518399E-01
       276 0001-01-01 23:00:00.00  4.756006E-04  6.585677E+02  6.585682E+02  3.884376E+11
                       (01,01,12)  3.907873E-02  1.424501E-03  1.250590E-02  1.526542E-01
       277 0001-01-01 23:05:00.00  4.808275E-04  6.585677E+02  6.585682E+02  3.884376E+11
                       (01,01,12)  3.930261E-02  1.428005E-03  1.253678E-02  1.534694E-01
       278 0001-01-01 23:10:00.00  4.860992E-04  6.585677E+02  6.585682E+02  3.884376E+11
                       (01,01,12)  3.952681E-02  1.431483E-03  1.256752E-02  1.542855E-01
       279 0001-01-01 23:15:00.00  4.914159E-04  6.585677E+02  6.585682E+02  3.884376E+11
                       (01,01,12)  3.975132E-02  1.434938E-03  1.259808E-02  1.551026E-01
       280 0001-01-01 23:20:00.00  4.967779E-04  6.585677E+02  6.585682E+02  3.884376E+11
                       (01,01,12)  3.997615E-02  1.438370E-03  1.262839E-02  1.559205E-01
       281 0001-01-01 23:25:00.00  5.021853E-04  6.585677E+02  6.585682E+02  3.884376E+11
                       (01,01,12)  4.020129E-02  1.441780E-03  1.265843E-02  1.567393E-01
       282 0001-01-01 23:30:00.00  5.076384E-04  6.585677E+02  6.585682E+02  3.884376E+11
                       (01,01,12)  4.042674E-02  1.445165E-03  1.268822E-02  1.575590E-01
       283 0001-01-01 23:35:00.00  5.131374E-04  6.585677E+02  6.585682E+02  3.884376E+11
                       (01,01,12)  4.065249E-02  1.448524E-03  1.271784E-02  1.583795E-01
       284 0001-01-01 23:40:00.00  5.186826E-04  6.585677E+02  6.585682E+02  3.884376E+11
                       (01,01,12)  4.087854E-02  1.451857E-03  1.274734E-02  1.592009E-01
       285 0001-01-01 23:45:00.00  5.242740E-04  6.585677E+02  6.585682E+02  3.884376E+11
                       (01,01,12)  4.110489E-02  1.455166E-03  1.277675E-02  1.600231E-01
       286 0001-01-01 23:50:00.00  5.299120E-04  6.585677E+02  6.585682E+02  3.884376E+11
                       (01,01,12)  4.133153E-02  1.458452E-03  1.280604E-02  1.608462E-01
       287 0001-01-01 23:55:00.00  5.355966E-04  6.585677E+02  6.585682E+02  3.884376E+11
[...]
                       (01,01,11)  1.756255E-01  2.884073E-03  3.165346E-02  6.309449E-01
      1350 0001-01-05 16:30:00.00  2.217951E-02  6.585708E+02  6.585930E+02  3.884376E+11
                       (01,01,11)  1.756674E-01  2.882773E-03  3.164234E-02  6.310862E-01
      1351 0001-01-05 16:35:00.00  2.220523E-02  6.585708E+02  6.585930E+02  3.884376E+11
                       (01,01,11)  1.757093E-01  2.881419E-03  3.163069E-02  6.312272E-01
      1352 0001-01-05 16:40:00.00  2.223095E-02  6.585708E+02  6.585931E+02  3.884376E+11
                       (01,01,11)  1.757510E-01  2.880009E-03  3.161850E-02  6.313679E-01
      1353 0001-01-05 16:45:00.00  2.225667E-02  6.585708E+02  6.585931E+02  3.884376E+11
                       (01,01,11)  1.757927E-01  2.878543E-03  3.160575E-02  6.315085E-01
      1354 0001-01-05 16:50:00.00  2.228239E-02  6.585708E+02  6.585931E+02  3.884376E+11
                       (01,01,11)  1.758343E-01  2.877020E-03  3.159244E-02  6.316488E-01
      1355 0001-01-05 16:55:00.00  2.230811E-02  6.585708E+02  6.585932E+02  3.884376E+11
                       (01,01,11)  1.758758E-01  2.875439E-03  3.157857E-02  6.317888E-01
      1356 0001-01-05 17:00:00.00  2.233383E-02  6.585709E+02  6.585932E+02  3.884376E+11
                       (01,01,11)  1.759173E-01  2.873799E-03  3.156412E-02  6.319287E-01
      1357 0001-01-05 17:05:00.00  2.235955E-02  6.585709E+02  6.585932E+02  3.884376E+11
                       (01,01,11)  1.759586E-01  2.872086E-03  3.154908E-02  6.320683E-01
      1358 0001-01-05 17:10:00.00  2.238527E-02  6.585709E+02  6.585932E+02  3.884376E+11
                       (01,01,11)  1.759999E-01  2.870306E-03  3.153333E-02  6.322076E-01
      1359 0001-01-05 17:15:00.00  2.241099E-02  6.585709E+02  6.585933E+02  3.884376E+11
                       (01,01,11)  1.760411E-01  2.868456E-03  3.151692E-02  6.323468E-01
      1360 0001-01-05 17:20:00.00  2.243671E-02  6.585709E+02  6.585933E+02  3.884376E+11
                       (01,01,11)  1.760822E-01  2.866537E-03  3.149983E-02  6.324857E-01
      1361 0001-01-05 17:25:00.00  2.246243E-02  6.585709E+02  6.585933E+02  3.884376E+11
                       (01,01,11)  1.761232E-01  2.864547E-03  3.148206E-02  6.326243E-01
      1362 0001-01-05 17:30:00.00  2.248815E-02  6.585709E+02  6.585934E+02  3.884376E+11
                       (01,01,11)  1.761641E-01  2.862486E-03  3.146360E-02  6.327628E-01
      1363 0001-01-05 17:35:00.00  2.251386E-02  6.585709E+02  6.585934E+02  3.884376E+11
                       (01,01,11)  1.762050E-01  2.860354E-03  3.144443E-02  6.329010E-01
      1364 0001-01-05 17:40:00.00  2.253958E-02  6.585709E+02  6.585934E+02  3.884376E+11
                       (01,01,11)  1.762458E-01  2.858149E-03  3.142456E-02  6.330389E-01
      1365 0001-01-05 17:45:00.00  2.256529E-02  6.585709E+02  6.585935E+02  3.884376E+11
                       (01,01,11)  1.762864E-01  2.855873E-03  3.140397E-02  6.331767E-01
      1366 0001-01-05 17:50:00.00  2.259100E-02  6.585709E+02  6.585935E+02  3.884376E+11
                       (01,01,11)  1.763270E-01  2.853523E-03  3.138266E-02  6.333142E-01
      1367 0001-01-05 17:55:00.00  2.261672E-02  6.585709E+02  6.585935E+02  3.884376E+11
                       (01,01,11)  1.763675E-01  2.851100E-03  3.136063E-02  6.334514E-01
      1368 0001-01-05 18:00:00.00  2.264243E-02  6.585709E+02  6.585936E+02  3.884376E+11
                       (01,01,11)  1.764079E-01  2.848603E-03  3.133788E-02  6.335884E-01
  WRT_HIS_NF90     - writing history     fields (Index=1,1) in record = 20
  WRT_AVG_NF90     - writing averaged    fields             in record = 19
  WRT_DIAGS_NF90   - writing diagnostics fields             in record = 19
      1369 0001-01-05 18:05:00.00  2.266814E-02  6.585709E+02  6.585936E+02  3.884376E+11
                       (01,01,11)  1.764482E-01  2.846032E-03  3.131440E-02  6.337252E-01
      1370 0001-01-05 18:10:00.00  2.269384E-02  6.585709E+02  6.585936E+02  3.884376E+11
                       (01,01,11)  1.764885E-01  2.843386E-03  3.129017E-02  6.338618E-01
      1371 0001-01-05 18:15:00.00  2.271955E-02  6.585709E+02  6.585936E+02  3.884376E+11
                       (01,01,11)  1.765286E-01  2.840665E-03  3.126519E-02  6.339981E-01
      1372 0001-01-05 18:20:00.00  2.274526E-02  6.585709E+02  6.585937E+02  3.884376E+11
                       (01,01,11)  1.765687E-01  2.837854E-03  3.123944E-02  6.341341E-01
      1373 0001-01-05 18:25:00.00  2.277096E-02  6.585709E+02  6.585937E+02  3.884376E+11
                       (01,01,11)  1.766086E-01  2.834961E-03  3.121282E-02  6.342699E-01
      1374 0001-01-05 18:30:00.00  2.279667E-02  6.585709E+02  6.585937E+02  3.884376E+11
                       (01,01,11)  1.766485E-01  2.831984E-03  3.118538E-02  6.344055E-01
      1375 0001-01-05 18:35:00.00  2.282237E-02  6.585709E+02  6.585938E+02  3.884376E+11
                       (01,01,11)  1.766882E-01  2.828924E-03  3.115710E-02  6.345408E-01
      1376 0001-01-05 18:40:00.00  2.284807E-02  6.585710E+02  6.585938E+02  3.884376E+11
                       (01,01,11)  1.767279E-01  2.825778E-03  3.112797E-02  6.346759E-01
      1377 0001-01-05 18:45:00.00  2.287377E-02  6.585710E+02  6.585938E+02  3.884376E+11
                       (01,01,11)  1.767675E-01  2.822547E-03  3.109800E-02  6.348107E-01
      1378 0001-01-05 18:50:00.00  2.289946E-02  6.585710E+02  6.585939E+02  3.884376E+11
                       (01,01,11)  1.768070E-01  2.819230E-03  3.106716E-02  6.349453E-01
      1379 0001-01-05 18:55:00.00  2.292516E-02  6.585710E+02  6.585939E+02  3.884376E+11
                       (01,01,11)  1.768464E-01  2.815829E-03  3.103544E-02  6.350796E-01
      1380 0001-01-05 19:00:00.00  2.295085E-02  6.585710E+02  6.585939E+02  3.884376E+11
                       (01,01,11)  1.768857E-01  2.812340E-03  3.100289E-02  6.352137E-01
      1381 0001-01-05 19:05:00.00  2.297654E-02  6.585710E+02  6.585940E+02  3.884376E+11
                       (01,01,11)  1.769249E-01  2.808765E-03  3.096945E-02  6.353475E-01
      1382 0001-01-05 19:10:00.00  2.300223E-02  6.585710E+02  6.585940E+02  3.884376E+11
                       (01,01,11)  1.769639E-01  2.805104E-03  3.093513E-02  6.354810E-01
      1383 0001-01-05 19:15:00.00  2.302792E-02  6.585710E+02  6.585940E+02  3.884376E+11
                       (01,01,11)  1.770029E-01  2.801354E-03  3.089992E-02  6.356143E-01
      1384 0001-01-05 19:20:00.00  2.305360E-02  6.585710E+02  6.585940E+02  3.884376E+11
                       (01,01,11)  1.770418E-01  2.797503E-03  3.086383E-02  6.357473E-01
      1385 0001-01-05 19:25:00.00  2.307929E-02  6.585710E+02  6.585941E+02  3.884376E+11
                       (01,01,11)  1.770806E-01  2.793550E-03  3.082673E-02  6.358801E-01
      1386 0001-01-05 19:30:00.00  2.310497E-02  6.585710E+02  6.585941E+02  3.884376E+11
                       (01,01,11)  1.771193E-01  2.789497E-03  3.078860E-02  6.360125E-01
      1387 0001-01-05 19:35:00.00  2.313065E-02  6.585710E+02  6.585941E+02  3.884376E+11
                       (01,01,11)  1.771578E-01  2.785342E-03  3.074946E-02  6.361447E-01
      1388 0001-01-05 19:40:00.00  2.315632E-02  6.585710E+02  6.585942E+02  3.884376E+11
                       (01,01,11)  1.771963E-01  2.781085E-03  3.070928E-02  6.362766E-01
      1389 0001-01-05 19:45:00.00  2.318200E-02  6.585710E+02  6.585942E+02  3.884376E+11
                       (01,01,11)  1.772346E-01  2.776725E-03  3.066808E-02  6.364083E-01
      1390 0001-01-05 19:50:00.00  2.320767E-02  6.585710E+02  6.585942E+02  3.884376E+11
                       (01,01,11)  1.772729E-01  2.772261E-03  3.062584E-02  6.365396E-01
      1391 0001-01-05 19:55:00.00  2.323334E-02  6.585710E+02  6.585943E+02  3.884376E+11
                       (01,01,11)  1.773110E-01  2.767694E-03  3.058256E-02  6.366707E-01
      1392 0001-01-05 20:00:00.00  2.325900E-02  6.585710E+02  6.585943E+02  3.884376E+11
                       (01,01,11)  1.773490E-01  2.763023E-03  3.053822E-02  6.368015E-01
      1393 0001-01-05 20:05:00.00  2.328467E-02  6.585710E+02  6.585943E+02  3.884376E+11
                       (01,01,11)  1.773869E-01  2.758248E-03  3.049283E-02  6.369319E-01
      1394 0001-01-05 20:10:00.00  2.331033E-02  6.585710E+02  6.585944E+02  3.884376E+11
                       (01,01,11)  1.774247E-01  2.753370E-03  3.044638E-02  6.370621E-01
      1395 0001-01-05 20:15:00.00  2.333599E-02  6.585710E+02  6.585944E+02  3.884376E+11
                       (01,01,11)  1.774624E-01  2.748388E-03  3.039887E-02  6.371920E-01
      1396 0001-01-05 20:20:00.00  2.336165E-02  6.585711E+02  6.585944E+02  3.884376E+11
                       (01,01,11)  1.774999E-01  2.743301E-03  3.035028E-02  6.373215E-01
      1397 0001-01-05 20:25:00.00  2.338730E-02  6.585711E+02  6.585944E+02  3.884376E+11
                       (01,01,11)  1.775373E-01  2.738110E-03  3.030063E-02  6.374508E-01
      1398 0001-01-05 20:30:00.00  2.341295E-02  6.585711E+02  6.585945E+02  3.884376E+11
                       (01,01,11)  1.775746E-01  2.732810E-03  3.024991E-02  6.375797E-01
      1399 0001-01-05 20:35:00.00  2.343860E-02  6.585711E+02  6.585945E+02  3.884376E+11
                       (01,01,11)  1.776118E-01  2.727406E-03  3.019808E-02  6.377083E-01
      1400 0001-01-05 20:40:00.00  2.346425E-02  6.585711E+02  6.585945E+02  3.884376E+11
                       (01,01,11)  1.776488E-01  2.721894E-03  3.014515E-02  6.378365E-01
      1401 0001-01-05 20:45:00.00  2.348989E-02  6.585711E+02  6.585946E+02  3.884376E+11
                       (01,01,11)  1.776857E-01  2.716277E-03  3.009118E-02  6.379644E-01
      1402 0001-01-05 20:50:00.00  2.351553E-02  6.585711E+02  6.585946E+02  3.884376E+11
                       (01,01,11)  1.777225E-01  2.710556E-03  3.003611E-02  6.380920E-01
      1403 0001-01-05 20:55:00.00  2.354117E-02  6.585711E+02  6.585946E+02  3.884376E+11
                       (01,01,11)  1.777592E-01  2.704729E-03  2.997995E-02  6.382192E-01
      1404 0001-01-05 21:00:00.00  2.356681E-02  6.585711E+02  6.585947E+02  3.884376E+11
                       (01,01,11)  1.777957E-01  2.698799E-03  2.992270E-02  6.383460E-01
      1405 0001-01-05 21:05:00.00  2.359244E-02  6.585711E+02  6.585947E+02  3.884376E+11
                       (01,01,11)  1.778320E-01  2.692766E-03  2.986437E-02  6.384725E-01
      1406 0001-01-05 21:10:00.00  2.361807E-02  6.585711E+02  6.585947E+02  3.884376E+11
                       (01,01,11)  1.778682E-01  2.686630E-03  2.980498E-02  6.385986E-01
      1407 0001-01-05 21:15:00.00  2.364370E-02  6.585711E+02  6.585948E+02  3.884376E+11
                       (01,01,11)  1.779043E-01  2.680393E-03  2.974453E-02  6.387243E-01
      1408 0001-01-05 21:20:00.00  2.366932E-02  6.585711E+02  6.585948E+02  3.884376E+11
                       (01,01,11)  1.779402E-01  2.674056E-03  2.968302E-02  6.388496E-01
      1409 0001-01-05 21:25:00.00  2.369495E-02  6.585711E+02  6.585948E+02  3.884376E+11
                       (01,01,11)  1.779760E-01  2.667619E-03  2.962043E-02  6.389746E-01
      1410 0001-01-05 21:30:00.00  2.372056E-02  6.585711E+02  6.585948E+02  3.884376E+11
                       (01,01,11)  1.780116E-01  2.661084E-03  2.955683E-02  6.390991E-01
      1411 0001-01-05 21:35:00.00  2.374618E-02  6.585711E+02  6.585949E+02  3.884376E+11
                       (01,01,11)  1.780471E-01  2.654453E-03  2.949219E-02  6.392232E-01
      1412 0001-01-05 21:40:00.00  2.377179E-02  6.585711E+02  6.585949E+02  3.884376E+11
                       (01,01,11)  1.780824E-01  2.647727E-03  2.942649E-02  6.393468E-01
      1413 0001-01-05 21:45:00.00  2.379740E-02  6.585711E+02  6.585949E+02  3.884376E+11
                       (01,01,11)  1.781175E-01  2.640908E-03  2.935978E-02  6.394700E-01
      1414 0001-01-05 21:50:00.00  2.382301E-02  6.585711E+02  6.585950E+02  3.884376E+11
                       (01,01,11)  1.781525E-01  2.633996E-03  2.929209E-02  6.395928E-01
      1415 0001-01-05 21:55:00.00  2.384862E-02  6.585711E+02  6.585950E+02  3.884376E+11
                       (01,01,11)  1.781873E-01  2.626994E-03  2.922341E-02  6.397151E-01
      1416 0001-01-05 22:00:00.00  2.387422E-02  6.585712E+02  6.585950E+02  3.884376E+11
                       (01,01,11)  1.782219E-01  2.619905E-03  2.915377E-02  6.398369E-01
      1417 0001-01-05 22:05:00.00  2.389982E-02  6.585712E+02  6.585951E+02  3.884376E+11
                       (01,01,11)  1.782563E-01  2.612731E-03  2.908319E-02  6.399582E-01
      1418 0001-01-05 22:10:00.00  2.392541E-02  6.585712E+02  6.585951E+02  3.884376E+11
                       (01,01,11)  1.782906E-01  2.605473E-03  2.901170E-02  6.400791E-01
      1419 0001-01-05 22:15:00.00  2.395101E-02  6.585712E+02  6.585951E+02  3.884376E+11
                       (01,01,11)  1.783247E-01  2.598135E-03  2.893931E-02  6.401994E-01
      1420 0001-01-05 22:20:00.00  2.397660E-02  6.585712E+02  6.585952E+02  3.884376E+11
                       (01,01,11)  1.783586E-01  2.590718E-03  2.886603E-02  6.403192E-01
      1421 0001-01-05 22:25:00.00  2.400219E-02  6.585712E+02  6.585952E+02  3.884376E+11
                       (01,01,11)  1.783923E-01  2.583225E-03  2.879187E-02  6.404385E-01
      1422 0001-01-05 22:30:00.00  2.402777E-02  6.585712E+02  6.585952E+02  3.884376E+11
                       (01,01,11)  1.784258E-01  2.575659E-03  2.871686E-02  6.405572E-01
      1423 0001-01-05 22:35:00.00  2.405336E-02  6.585712E+02  6.585952E+02  3.884376E+11
                       (01,01,11)  1.784592E-01  2.568022E-03  2.864103E-02  6.406754E-01
      1424 0001-01-05 22:40:00.00  2.407894E-02  6.585712E+02  6.585953E+02  3.884376E+11
                       (01,01,11)  1.784923E-01  2.560319E-03  2.856444E-02  6.407930E-01
      1425 0001-01-05 22:45:00.00  2.410451E-02  6.585712E+02  6.585953E+02  3.884376E+11
                       (01,01,11)  1.785252E-01  2.552552E-03  2.848705E-02  6.409100E-01
      1426 0001-01-05 22:50:00.00  2.413009E-02  6.585712E+02  6.585953E+02  3.884376E+11
                       (01,01,11)  1.785579E-01  2.544725E-03  2.840890E-02  6.410264E-01
      1427 0001-01-05 22:55:00.00  2.415566E-02  6.585712E+02  6.585954E+02  3.884376E+11
                       (01,01,11)  1.785904E-01  2.536842E-03  2.833003E-02  6.411421E-01
      1428 0001-01-05 23:00:00.00  2.418123E-02  6.585712E+02  6.585954E+02  3.884376E+11
                       (01,01,11)  1.786227E-01  2.528907E-03  2.825048E-02  6.412573E-01
      1429 0001-01-05 23:05:00.00  2.420680E-02  6.585712E+02  6.585954E+02  3.884376E+11
                       (01,02,10)  1.600566E-01  7.979489E-03  4.157403E-02  6.413718E-01
      1430 0001-01-05 23:10:00.00  2.423236E-02  6.585712E+02  6.585955E+02  3.884376E+11
                       (01,02,10)  1.600925E-01  8.008482E-03  4.204038E-02  6.414856E-01
      1431 0001-01-05 23:15:00.00  2.425792E-02  6.585712E+02  6.585955E+02  3.884376E+11
                       (01,02,10)  1.601280E-01  8.037761E-03  4.251149E-02  6.415988E-01
      1432 0001-01-05 23:20:00.00  2.428348E-02  6.585712E+02  6.585955E+02  3.884376E+11
                       (01,02,10)  1.601631E-01  8.067159E-03  4.298708E-02  6.417113E-01
      1433 0001-01-05 23:25:00.00  2.430904E-02  6.585712E+02  6.585955E+02  3.884376E+11
                       (01,02,10)  1.601977E-01  8.096980E-03  4.346542E-02  6.418230E-01
      1434 0001-01-05 23:30:00.00  2.433459E-02  6.585712E+02  6.585956E+02  3.884376E+11
                       (01,02,10)  1.602317E-01  8.127058E-03  4.394944E-02  6.419341E-01
      1435 0001-01-05 23:35:00.00  2.436015E-02  6.585713E+02  6.585956E+02  3.884376E+11
                       (01,02,10)  1.602653E-01  8.157415E-03  4.443738E-02  6.420443E-01
      1436 0001-01-05 23:40:00.00  2.438570E-02  6.585713E+02  6.585956E+02  3.884376E+11
                       (01,02,10)  1.602983E-01  8.188060E-03  4.492955E-02  6.421539E-01
      1437 0001-01-05 23:45:00.00  2.441124E-02  6.585713E+02  6.585957E+02  3.884376E+11
                       (01,02,10)  1.603307E-01  8.219019E-03  4.542582E-02  6.422627E-01
      1438 0001-01-05 23:50:00.00  2.443679E-02  6.585713E+02  6.585957E+02  3.884376E+11
                       (01,02,10)  1.603625E-01  8.250265E-03  4.592610E-02  6.423706E-01
      1439 0001-01-05 23:55:00.00  2.446234E-02  6.585713E+02  6.585957E+02  3.884376E+11
                       (01,02,10)  1.603937E-01  8.281787E-03  4.643031E-02  6.424778E-01
      1440 0001-01-06 00:00:00.00  2.448788E-02  6.585713E+02  6.585958E+02  3.884376E+11
                       (01,02,10)  1.604243E-01  8.313576E-03  4.693829E-02  6.425841E-01
  WRT_HIS_NF90     - writing history     fields (Index=1,1) in record = 21
  WRT_AVG_NF90     - writing averaged    fields             in record = 20
  WRT_DIAGS_NF90   - writing diagnostics fields             in record = 20
  WRT_RST_NF90     - writing re-start    fields (Index=1,1) in record = 3

Elapsed wall CPU time for each process (seconds):

 Thread #    0 CPU:    1122.973
 Total:                1122.973

 Nonlinear model elapsed CPU time profile, Grid: 01

  Allocation and array initialization ..............         0.135  ( 0.0121 %)
  Ocean state initialization .......................         0.033  ( 0.0030 %)
  Reading of input data ............................         0.009  ( 0.0008 %)
  Processing of input data .........................         0.180  ( 0.0161 %)
  Processing of output time averaged data ..........       190.421  (16.9568 %)
  Computation of vertical boundary conditions ......         0.312  ( 0.0278 %)
  Computation of global information integrals ......         8.356  ( 0.7441 %)
  Writing of output data ...........................         1.674  ( 0.1491 %)
  Model 2D kernel ..................................       558.333  (49.7192 %)
  2D/3D coupling, vertical metrics .................         5.319  ( 0.4737 %)
  Omega vertical velocity ..........................         5.791  ( 0.5157 %)
  Equation of state for seawater ...................         4.852  ( 0.4320 %)
  3D equations right-side terms ....................        42.963  ( 3.8258 %)
  3D equations predictor step ......................        64.282  ( 5.7243 %)
  Pressure gradient ................................        24.422  ( 2.1748 %)
  Harmonic mixing of tracers, S-surfaces ...........        13.903  ( 1.2381 %)
  Harmonic stress tensor, S-surfaces ...............        22.198  ( 1.9767 %)
  Corrector time-step for 3D momentum ..............        93.032  ( 8.2844 %)
  Corrector time-step for tracers ..................        77.242  ( 6.8784 %)
                                              Total:      1113.458   99.1527 %

  Unique kernel(s) regions profiled ................      1113.458   99.1527 %
  Residual, non-profiled code ......................         9.515    0.8473 %


 All percentages are with respect to total time =         1122.973


>>>>>>>>>>>>>>>>>>>>>>>>>>>>>>>>>>>>>>>>>>>>>>>>>>>>>>>>>>>>>>>>>>>>>>>>>>>>>>>>

 Dynamic and Automatic memory (MB) usage for Grid 01:  41x80x16  tiling: 1x1

     tile          Dynamic        Automatic            USAGE

        0            88.89             3.87            92.76

    TOTAL            88.89             3.87            92.76

<<<<<<<<<<<<<<<<<<<<<<<<<<<<<<<<<<<<<<<<<<<<<<<<<<<<<<<<<<<<<<<<<<<<<<<<<<<<<<<<

 ROMS/TOMS - Output NetCDF summary for Grid 01:
             number of time records written in HISTORY file = 21
             number of time records written in RESTART file = 2
             number of time records written in AVERAGE file = 20

 Analytical header files used:

     ROMS/Functionals/ana_btflux.h
     ROMS/Functionals/ana_grid.h
     ROMS/Functionals/ana_initial.h
     ROMS/Functionals/ana_smflux.h
     ROMS/Functionals/ana_stflux.h
     ROMS/Functionals/ana_vmix.h

 ROMS/TOMS: DONE... Wednesday - December 27, 2023 - 11:08:17 PM
